
 Fire Dynamics Simulator

 Current Date     : January 30, 2023  20:58:01
 Revision         : FDS6.7.9-0-gec52dee42-release
 Revision Date    : Sun Jun 26 14:36:40 2022 -0400
 Compiler         : 
 Compilation Date : Tue 06/28/2022  11:11 PM

 MPI Enabled;    Number of MPI Processes:      40
 OpenMP Disabled

 MPI version: 3.1
 MPI library version: Intel(R) MPI Library 2021.6 for Windows* OS


 Job TITLE        : 
 Job ID string    : 18


 Miscellaneous Parameters

   Simulation Start Time (s)          0.0
   Simulation End Time (s)           15.0
   Background Pressure (Pa)     101325.00
   Ambient Temperature (C)          20.00

   3D Cartesian
   LES Calculation
   Eddy Viscosity: Deardorff Model (C_DEARDORFF = 0.10)
   Surface INERT Eddy Viscosity: WALE Model (C_WALE = 0.60)
   Surface WALL Eddy Viscosity: WALE Model (C_WALE = 0.60)
   Surface FIRE Eddy Viscosity: WALE Model (C_WALE = 0.60)
   Turbulent Prandtl Number:         0.85
   Turbulent Schmidt Number:         0.70


 Mass Fraction Transformation Matrix to Convert Species Mixtures (Columns) to Primitive Species (Rows)

                         AIR       REAC_FUE  PRODUCTS
   REAC_FUEL             0.000000  1.000000  0.000000
   NITROGEN              0.762470  0.000000  0.713174
   OXYGEN                0.230997  0.000000  0.000000
   CARBON DIOXIDE        0.000591  0.000000  0.183622
   WATER VAPOR           0.005941  0.000000  0.098549
   CARBON MONOXIDE       0.000000  0.000000  0.000647
   SOOT                  0.000000  0.000000  0.004008
   HYDROGEN              0.000000  0.000000  0.000000
   HYDROGEN CYANIDE      0.000000  0.000000  0.000000


 Primitive Species Information

   REAC_FUEL
   Gas Species
   Molecular Weight (g/mol)           100.20194
   Ambient Density (kg/m^3)            4.166
   Enthalpy of Formation (J/kg)        3.52E+06

   NITROGEN
   Gas Species
   Molecular Weight (g/mol)            28.01340
   Ambient Density (kg/m^3)            1.165
   Enthalpy of Formation (J/kg)        0.00E+00

   OXYGEN
   Gas Species
   Molecular Weight (g/mol)            31.99880
   Ambient Density (kg/m^3)            1.330
   Enthalpy of Formation (J/kg)        0.00E+00

   CARBON DIOXIDE
   Gas Species
   Molecular Weight (g/mol)            44.00950
   Ambient Density (kg/m^3)            1.830
   Enthalpy of Formation (J/kg)       -8.94E+06

   WATER VAPOR
   Gas Species
   Molecular Weight (g/mol)            18.01528
   Ambient Density (kg/m^3)            0.749
   Enthalpy of Formation (J/kg)       -1.34E+07

   CARBON MONOXIDE
   Gas Species
   Molecular Weight (g/mol)            28.01010
   Ambient Density (kg/m^3)            1.164
   Enthalpy of Formation (J/kg)       -3.95E+06

   SOOT
   Gas Species
   Molecular Weight (g/mol)            12.01070
   Ambient Density (kg/m^3)            0.499
   Enthalpy of Formation (J/kg)        0.00E+00

   HYDROGEN
   Gas Species
   Molecular Weight (g/mol)             2.01588
   Ambient Density (kg/m^3)            0.084
   Enthalpy of Formation (J/kg)        0.00E+00

   HYDROGEN CYANIDE
   Gas Species
   Molecular Weight (g/mol)            27.02534
   Ambient Density (kg/m^3)            1.123
   Enthalpy of Formation (J/kg)        4.92E+06


 Tracked (Lumped) Species Information

   AIR
   Molecular Weight (g/mol)            28.75198
   Ambient Density (kg/m^3)            1.195
   Initial Mass Fraction               1.000
   Enthalpy of Formation (J/kg)     -8.50E+04

   Sub Species                    Mass Fraction     Mole Fraction
   NITROGEN                       7.624699E-01      7.825727E-01
   OXYGEN                         2.309974E-01      2.075588E-01
   CARBON DIOXIDE                 5.914650E-04      3.864118E-04
   WATER VAPOR                    5.941209E-03      9.482037E-03
 
     Viscosity (kg/m/s) Ambient,  293 K:  1.80E-05
                                  500 K:  2.61E-05
                                 1000 K:  4.13E-05
                                 1500 K:  5.37E-05
   Therm. Cond. (W/m/K) Ambient,  293 K:  2.56E-02
                                  500 K:  3.81E-02
                                 1000 K:  6.69E-02
                                 1500 K:  9.25E-02
        Enthalpy (J/kg) Ambient,  293 K: -9.01E+04
                                  500 K:  1.22E+05
                                 1000 K:  6.72E+05
                                 1500 K:  1.27E+06
    Spec. Heat (J/kg/K) Ambient,  293 K:  1.02E+03
                                  500 K:  1.04E+03
                                 1000 K:  1.16E+03
                                 1500 K:  1.23E+03
   Diff. Coeff. (m^2/s) Ambient,  293 K:  1.99E-05
                                  500 K:  4.96E-05
                                 1000 K:  1.58E-04
                                 1500 K:  3.09E-04

   REAC_FUEL
   Molecular Weight (g/mol)           100.20194
   Ambient Density (kg/m^3)            4.166
   Initial Mass Fraction               0.000
   Enthalpy of Formation (J/kg)      3.52E+06

   Sub Species                    Mass Fraction     Mole Fraction
   REAC_FUEL                      1.000000E+00      1.000000E+00
 
     Viscosity (kg/m/s) Ambient,  293 K:  3.29E-05
                                  500 K:  4.75E-05
                                 1000 K:  7.47E-05
                                 1500 K:  9.71E-05
   Therm. Cond. (W/m/K) Ambient,  293 K:  1.35E-02
                                  500 K:  1.94E-02
                                 1000 K:  3.05E-02
                                 1500 K:  3.97E-02
        Enthalpy (J/kg) Ambient,  293 K:  3.51E+06
                                  500 K:  3.57E+06
                                 1000 K:  3.72E+06
                                 1500 K:  3.87E+06
    Spec. Heat (J/kg/K) Ambient,  293 K:  2.90E+02
                                  500 K:  2.90E+02
                                 1000 K:  2.90E+02
                                 1500 K:  2.90E+02
   Diff. Coeff. (m^2/s) Ambient,  293 K:  1.59E-05
                                  500 K:  3.95E-05
                                 1000 K:  1.25E-04
                                 1500 K:  2.46E-04

   PRODUCTS
   Molecular Weight (g/mol)            28.20257
   Ambient Density (kg/m^3)            1.172
   Initial Mass Fraction               0.000
   Enthalpy of Formation (J/kg)     -2.97E+06

   Sub Species                    Mass Fraction     Mole Fraction
   NITROGEN                       7.131740E-01      7.179900E-01
   CARBON DIOXIDE                 1.836224E-01      1.176706E-01
   WATER VAPOR                    9.854865E-02      1.542760E-01
   CARBON MONOXIDE                6.465300E-04      6.509727E-04
   SOOT                           4.008486E-03      9.412409E-03
   HYDROGEN CYANIDE               0.000000E+00      0.000000E+00
 
     Viscosity (kg/m/s) Ambient,  293 K:  1.61E-05
                                  500 K:  2.39E-05
                                 1000 K:  3.89E-05
                                 1500 K:  5.13E-05
   Therm. Cond. (W/m/K) Ambient,  293 K:  2.33E-02
                                  500 K:  3.61E-02
                                 1000 K:  6.69E-02
                                 1500 K:  9.59E-02
        Enthalpy (J/kg) Ambient,  293 K: -2.97E+06
                                  500 K: -2.74E+06
                                 1000 K: -2.13E+06
                                 1500 K: -1.46E+06
    Spec. Heat (J/kg/K) Ambient,  293 K:  1.08E+03
                                  500 K:  1.14E+03
                                 1000 K:  1.29E+03
                                 1500 K:  1.40E+03
   Diff. Coeff. (m^2/s) Ambient,  293 K:  1.95E-05
                                  500 K:  4.95E-05
                                 1000 K:  1.60E-04
                                 1500 K:  3.14E-04


 Gas Phase Reaction Information

      Fuel                                           Heat of Combustion (kJ/kg)
      REAC_FUEL                                                      48181.0000

      Primitive Species Stoich. Coeff.
      Species ID                                                          Molar
      REAC_FUEL                                                       -1.000000
      NITROGEN                                                        -0.000000
      OXYGEN                                                         -10.464864
      CARBON DIOXIDE                                                   6.446978
      WATER VAPOR                                                      8.000000
      CARBON MONOXIDE                                                  0.035774
      SOOT                                                             0.517249

      Tracked (Lumped) Species Stoich. Coeff.
      Species ID                                             Molar         Mass
      AIR                                               -50.418789   -14.467187
      REAC_FUEL                                          -1.000000    -1.000000
      PRODUCTS                                           54.953924    15.467187

      Reaction Kinetics

      Fast chemistry

      ODE Solver:  EXPLICIT EULER
      Extinction Model:  EXTINCTION 2
      Auto-Ignition Temperature (K):       0.0
      Critical Flame Temperature (K):   1700.2

      Prescribed Radiative Fraction:     0.310


 Material Information

   1 WALL
     Emissivity                      1.000
     Density (kg/m3)                2280.0
     Specific Heat (kJ/kg/K)       1.04E+00
     Conductivity (W/m/K)          1.80E+00


 Surface Conditions

   0 INERT (DEFAULT)

   1 WALL
     Material List
          1  WALL
     Layer  1
        Thickness   (m):  0.20000
        Density (kg/m3):  2280.00
        WALL, Mass fraction:    1.00
     Total surface density   456.000 kg/m2
     Reaction products considered from the first  0.50 layers.
     Solid Phase Node, Layer, Coordinates(m):
                    0      1       0.0000000
                    1      1       0.0007874
                    2      1       0.0023622
                    3      1       0.0055118
                    4      1       0.0118110
                    5      1       0.0244094
                    6      1       0.0496063
                    7      1       0.1000000
                    8      1       0.1503937
                    9      1       0.1755906
                   10      1       0.1881890
                   11      1       0.1944882
                   12      1       0.1976378
                   13      1       0.1992126
                   14      1       0.2000000
     Exposed Backing

   2 FIRE
     Wall or Vent Temperature (C)   300.0
     REAC_FUEL Mass Flux (kg/s/m2)   3.62E-02

   3 OPEN
     Passive Vent to Atmosphere

   4 MIRROR
     Symmetry Plane

   5 INTERPOLATED

   6 PERIODIC

   7 HVAC

   8 MASSLESS TRACER

   9 DROPLET

  10 MASSLESS TARGET

  11 PERIODIC FLOW ONLY


 Lagrangian Particle Classes


 Cut-off Density and Temperature

    Minimum Temperature:   -10.0 C
    Maximum Temperature:  2726.8 C
    Minimum Density:  1.195E-01 kg/m3
    Maximum Density:  9.281E+00 kg/m3


 Device Information

   1 ID: PQ-L-0,0
     QUANTITY: INCIDENT HEAT FLUX
     Coordinates (X,Y,Z):    3.000000E-04    8.250000E-01    3.000000E-04
     TEMPORAL STATISTIC: TIME AVERAGE
   2 ID: PQ-L-0,5
     QUANTITY: INCIDENT HEAT FLUX
     Coordinates (X,Y,Z):    3.000000E-04    8.250000E-01    5.000000E-01
     TEMPORAL STATISTIC: TIME AVERAGE
   3 ID: PQ-L-1,0
     QUANTITY: INCIDENT HEAT FLUX
     Coordinates (X,Y,Z):    3.000000E-04    8.250000E-01    1.000000E+00
     TEMPORAL STATISTIC: TIME AVERAGE
   4 ID: PQ-L-1,5
     QUANTITY: INCIDENT HEAT FLUX
     Coordinates (X,Y,Z):    3.000000E-04    8.250000E-01    1.500000E+00
     TEMPORAL STATISTIC: TIME AVERAGE
   5 ID: PQ-L-2,0
     QUANTITY: INCIDENT HEAT FLUX
     Coordinates (X,Y,Z):    3.000000E-04    8.250000E-01    2.000000E+00
     TEMPORAL STATISTIC: TIME AVERAGE
   6 ID: PQ-L-2,5
     QUANTITY: INCIDENT HEAT FLUX
     Coordinates (X,Y,Z):    3.000000E-04    8.250000E-01    2.500000E+00
     TEMPORAL STATISTIC: TIME AVERAGE
   7 ID: PQ-R-0,0
     QUANTITY: INCIDENT HEAT FLUX
     Coordinates (X,Y,Z):    1.649700E+00    8.250000E-01    3.000000E-04
     TEMPORAL STATISTIC: TIME AVERAGE
   8 ID: PQ-R-0,5
     QUANTITY: INCIDENT HEAT FLUX
     Coordinates (X,Y,Z):    1.649700E+00    8.250000E-01    5.000000E-01
     TEMPORAL STATISTIC: TIME AVERAGE
   9 ID: PQ-R-1,0
     QUANTITY: INCIDENT HEAT FLUX
     Coordinates (X,Y,Z):    1.649700E+00    8.250000E-01    1.000000E+00
     TEMPORAL STATISTIC: TIME AVERAGE
  10 ID: PQ-R-1,5
     QUANTITY: INCIDENT HEAT FLUX
     Coordinates (X,Y,Z):    1.649700E+00    8.250000E-01    1.500000E+00
     TEMPORAL STATISTIC: TIME AVERAGE
  11 ID: PQ-R-2,0
     QUANTITY: INCIDENT HEAT FLUX
     Coordinates (X,Y,Z):    1.649700E+00    8.250000E-01    2.000000E+00
     TEMPORAL STATISTIC: TIME AVERAGE
  12 ID: PQ-R-2,5
     QUANTITY: INCIDENT HEAT FLUX
     Coordinates (X,Y,Z):    1.649700E+00    8.250000E-01    2.500000E+00
     TEMPORAL STATISTIC: TIME AVERAGE
  13 ID: PQ-T-0,0
     QUANTITY: INCIDENT HEAT FLUX
     Coordinates (X,Y,Z):    8.250000E-01    1.649700E+00    3.000000E-04
     TEMPORAL STATISTIC: TIME AVERAGE
  14 ID: PQ-T-0,5
     QUANTITY: INCIDENT HEAT FLUX
     Coordinates (X,Y,Z):    8.250000E-01    1.649700E+00    5.000000E-01
     TEMPORAL STATISTIC: TIME AVERAGE
  15 ID: PQ-T-1,0
     QUANTITY: INCIDENT HEAT FLUX
     Coordinates (X,Y,Z):    8.250000E-01    1.649700E+00    1.000000E+00
     TEMPORAL STATISTIC: TIME AVERAGE
  16 ID: PQ-T-1,5
     QUANTITY: INCIDENT HEAT FLUX
     Coordinates (X,Y,Z):    8.250000E-01    1.649700E+00    1.500000E+00
     TEMPORAL STATISTIC: TIME AVERAGE
  17 ID: PQ-T-2,0
     QUANTITY: INCIDENT HEAT FLUX
     Coordinates (X,Y,Z):    8.250000E-01    1.649700E+00    2.000000E+00
     TEMPORAL STATISTIC: TIME AVERAGE
  18 ID: PQ-T-2,5
     QUANTITY: INCIDENT HEAT FLUX
     Coordinates (X,Y,Z):    8.250000E-01    1.649700E+00    2.500000E+00
     TEMPORAL STATISTIC: TIME AVERAGE
  19 ID: PQ-B-0,0
     QUANTITY: INCIDENT HEAT FLUX
     Coordinates (X,Y,Z):    8.250000E-01    3.000000E-04    3.000000E-04
     TEMPORAL STATISTIC: TIME AVERAGE
  20 ID: PQ-B-0,5
     QUANTITY: INCIDENT HEAT FLUX
     Coordinates (X,Y,Z):    8.250000E-01    3.000000E-04    5.000000E-01
     TEMPORAL STATISTIC: TIME AVERAGE
  21 ID: PQ-B-1,0
     QUANTITY: INCIDENT HEAT FLUX
     Coordinates (X,Y,Z):    8.250000E-01    3.000000E-04    1.000000E+00
     TEMPORAL STATISTIC: TIME AVERAGE
  22 ID: PQ-B-1,5
     QUANTITY: INCIDENT HEAT FLUX
     Coordinates (X,Y,Z):    8.250000E-01    3.000000E-04    1.500000E+00
     TEMPORAL STATISTIC: TIME AVERAGE
  23 ID: PQ-B-2,0
     QUANTITY: INCIDENT HEAT FLUX
     Coordinates (X,Y,Z):    8.250000E-01    3.000000E-04    2.000000E+00
     TEMPORAL STATISTIC: TIME AVERAGE
  24 ID: PQ-B-2,5
     QUANTITY: INCIDENT HEAT FLUX
     Coordinates (X,Y,Z):    8.250000E-01    3.000000E-04    2.500000E+00
     TEMPORAL STATISTIC: TIME AVERAGE
  25 ID: LQ-L-0,0
     QUANTITY: RADIATIVE HEAT FLUX
     Coordinates (X,Y,Z):    3.000000E-04    8.250000E-01    3.000000E-04
     TEMPORAL STATISTIC: TIME AVERAGE
  26 ID: LQ-L-0,5
     QUANTITY: RADIATIVE HEAT FLUX
     Coordinates (X,Y,Z):    3.000000E-04    8.250000E-01    5.000000E-01
     TEMPORAL STATISTIC: TIME AVERAGE
  27 ID: LQ-L-1,0
     QUANTITY: RADIATIVE HEAT FLUX
     Coordinates (X,Y,Z):    3.000000E-04    8.250000E-01    1.000000E+00
     TEMPORAL STATISTIC: TIME AVERAGE
  28 ID: LQ-L-1,5
     QUANTITY: RADIATIVE HEAT FLUX
     Coordinates (X,Y,Z):    3.000000E-04    8.250000E-01    1.500000E+00
     TEMPORAL STATISTIC: TIME AVERAGE
  29 ID: LQ-L-2,0
     QUANTITY: RADIATIVE HEAT FLUX
     Coordinates (X,Y,Z):    3.000000E-04    8.250000E-01    2.000000E+00
     TEMPORAL STATISTIC: TIME AVERAGE
  30 ID: LQ-L-2,5
     QUANTITY: RADIATIVE HEAT FLUX
     Coordinates (X,Y,Z):    3.000000E-04    8.250000E-01    2.500000E+00
     TEMPORAL STATISTIC: TIME AVERAGE
  31 ID: LQ-R-0,0
     QUANTITY: RADIATIVE HEAT FLUX
     Coordinates (X,Y,Z):    1.649700E+00    8.250000E-01    3.000000E-04
     TEMPORAL STATISTIC: TIME AVERAGE
  32 ID: LQ-R-0,5
     QUANTITY: RADIATIVE HEAT FLUX
     Coordinates (X,Y,Z):    1.649700E+00    8.250000E-01    5.000000E-01
     TEMPORAL STATISTIC: TIME AVERAGE
  33 ID: LQ-R-1,0
     QUANTITY: RADIATIVE HEAT FLUX
     Coordinates (X,Y,Z):    1.649700E+00    8.250000E-01    1.000000E+00
     TEMPORAL STATISTIC: TIME AVERAGE
  34 ID: LQ-R-1,5
     QUANTITY: RADIATIVE HEAT FLUX
     Coordinates (X,Y,Z):    1.649700E+00    8.250000E-01    1.500000E+00
     TEMPORAL STATISTIC: TIME AVERAGE
  35 ID: LQ-R-2,0
     QUANTITY: RADIATIVE HEAT FLUX
     Coordinates (X,Y,Z):    1.649700E+00    8.250000E-01    2.000000E+00
     TEMPORAL STATISTIC: TIME AVERAGE
  36 ID: LQ-R-2,5
     QUANTITY: RADIATIVE HEAT FLUX
     Coordinates (X,Y,Z):    1.649700E+00    8.250000E-01    2.500000E+00
     TEMPORAL STATISTIC: TIME AVERAGE
  37 ID: LQ-T-0,0
     QUANTITY: RADIATIVE HEAT FLUX
     Coordinates (X,Y,Z):    8.250000E-01    1.649700E+00    3.000000E-04
     TEMPORAL STATISTIC: TIME AVERAGE
  38 ID: LQ-T-0,5
     QUANTITY: RADIATIVE HEAT FLUX
     Coordinates (X,Y,Z):    8.250000E-01    1.649700E+00    5.000000E-01
     TEMPORAL STATISTIC: TIME AVERAGE
  39 ID: LQ-T-1,0
     QUANTITY: RADIATIVE HEAT FLUX
     Coordinates (X,Y,Z):    8.250000E-01    1.649700E+00    1.000000E+00
     TEMPORAL STATISTIC: TIME AVERAGE
  40 ID: LQ-T-1,5
     QUANTITY: RADIATIVE HEAT FLUX
     Coordinates (X,Y,Z):    8.250000E-01    1.649700E+00    1.500000E+00
     TEMPORAL STATISTIC: TIME AVERAGE
  41 ID: LQ-T-2,0
     QUANTITY: RADIATIVE HEAT FLUX
     Coordinates (X,Y,Z):    8.250000E-01    1.649700E+00    2.000000E+00
     TEMPORAL STATISTIC: TIME AVERAGE
  42 ID: LQ-T-2,5
     QUANTITY: RADIATIVE HEAT FLUX
     Coordinates (X,Y,Z):    8.250000E-01    1.649700E+00    2.500000E+00
     TEMPORAL STATISTIC: TIME AVERAGE
  43 ID: LQ-B-0,0
     QUANTITY: RADIATIVE HEAT FLUX
     Coordinates (X,Y,Z):    8.250000E-01    3.000000E-04    3.000000E-04
     TEMPORAL STATISTIC: TIME AVERAGE
  44 ID: LQ-B-0,5
     QUANTITY: RADIATIVE HEAT FLUX
     Coordinates (X,Y,Z):    8.250000E-01    3.000000E-04    5.000000E-01
     TEMPORAL STATISTIC: TIME AVERAGE
  45 ID: LQ-B-1,0
     QUANTITY: RADIATIVE HEAT FLUX
     Coordinates (X,Y,Z):    8.250000E-01    3.000000E-04    1.000000E+00
     TEMPORAL STATISTIC: TIME AVERAGE
  46 ID: LQ-B-1,5
     QUANTITY: RADIATIVE HEAT FLUX
     Coordinates (X,Y,Z):    8.250000E-01    3.000000E-04    1.500000E+00
     TEMPORAL STATISTIC: TIME AVERAGE
  47 ID: LQ-B-2,0
     QUANTITY: RADIATIVE HEAT FLUX
     Coordinates (X,Y,Z):    8.250000E-01    3.000000E-04    2.000000E+00
     TEMPORAL STATISTIC: TIME AVERAGE
  48 ID: LQ-B-2,5
     QUANTITY: RADIATIVE HEAT FLUX
     Coordinates (X,Y,Z):    8.250000E-01    3.000000E-04    2.500000E+00
     TEMPORAL STATISTIC: TIME AVERAGE
  49 ID: PLQ-L-0,0
     QUANTITY: TOTAL HEAT FLUX
     Coordinates (X,Y,Z):    3.000000E-04    8.250000E-01    3.000000E-04
     TEMPORAL STATISTIC: TIME AVERAGE
  50 ID: PLQ-L-0,5
     QUANTITY: TOTAL HEAT FLUX
     Coordinates (X,Y,Z):    3.000000E-04    8.250000E-01    5.000000E-01
     TEMPORAL STATISTIC: TIME AVERAGE
  51 ID: PLQ-L-1,0
     QUANTITY: TOTAL HEAT FLUX
     Coordinates (X,Y,Z):    3.000000E-04    8.250000E-01    1.000000E+00
     TEMPORAL STATISTIC: TIME AVERAGE
  52 ID: PLQ-L-1,5
     QUANTITY: TOTAL HEAT FLUX
     Coordinates (X,Y,Z):    3.000000E-04    8.250000E-01    1.500000E+00
     TEMPORAL STATISTIC: TIME AVERAGE
  53 ID: PLQ-L-2,0
     QUANTITY: TOTAL HEAT FLUX
     Coordinates (X,Y,Z):    3.000000E-04    8.250000E-01    2.000000E+00
     TEMPORAL STATISTIC: TIME AVERAGE
  54 ID: PLQ-L-2,5
     QUANTITY: TOTAL HEAT FLUX
     Coordinates (X,Y,Z):    3.000000E-04    8.250000E-01    2.500000E+00
     TEMPORAL STATISTIC: TIME AVERAGE
  55 ID: PLQ-R-0,0
     QUANTITY: TOTAL HEAT FLUX
     Coordinates (X,Y,Z):    1.649700E+00    8.250000E-01    3.000000E-04
     TEMPORAL STATISTIC: TIME AVERAGE
  56 ID: PLQ-R-0,5
     QUANTITY: TOTAL HEAT FLUX
     Coordinates (X,Y,Z):    1.649700E+00    8.250000E-01    5.000000E-01
     TEMPORAL STATISTIC: TIME AVERAGE
  57 ID: PLQ-R-1,0
     QUANTITY: TOTAL HEAT FLUX
     Coordinates (X,Y,Z):    1.649700E+00    8.250000E-01    1.000000E+00
     TEMPORAL STATISTIC: TIME AVERAGE
  58 ID: PLQ-R-1,5
     QUANTITY: TOTAL HEAT FLUX
     Coordinates (X,Y,Z):    1.649700E+00    8.250000E-01    1.500000E+00
     TEMPORAL STATISTIC: TIME AVERAGE
  59 ID: PLQ-R-2,0
     QUANTITY: TOTAL HEAT FLUX
     Coordinates (X,Y,Z):    1.649700E+00    8.250000E-01    2.000000E+00
     TEMPORAL STATISTIC: TIME AVERAGE
  60 ID: PLQ-R-2,5
     QUANTITY: TOTAL HEAT FLUX
     Coordinates (X,Y,Z):    1.649700E+00    8.250000E-01    2.500000E+00
     TEMPORAL STATISTIC: TIME AVERAGE
  61 ID: PLQ-T-0,0
     QUANTITY: TOTAL HEAT FLUX
     Coordinates (X,Y,Z):    8.250000E-01    1.649700E+00    3.000000E-04
     TEMPORAL STATISTIC: TIME AVERAGE
  62 ID: PLQ-T-0,5
     QUANTITY: TOTAL HEAT FLUX
     Coordinates (X,Y,Z):    8.250000E-01    1.649700E+00    5.000000E-01
     TEMPORAL STATISTIC: TIME AVERAGE
  63 ID: PLQ-T-1,0
     QUANTITY: TOTAL HEAT FLUX
     Coordinates (X,Y,Z):    8.250000E-01    1.649700E+00    1.000000E+00
     TEMPORAL STATISTIC: TIME AVERAGE
  64 ID: PLQ-T-1,5
     QUANTITY: TOTAL HEAT FLUX
     Coordinates (X,Y,Z):    8.250000E-01    1.649700E+00    1.500000E+00
     TEMPORAL STATISTIC: TIME AVERAGE
  65 ID: PLQ-T-2,0
     QUANTITY: TOTAL HEAT FLUX
     Coordinates (X,Y,Z):    8.250000E-01    1.649700E+00    2.000000E+00
     TEMPORAL STATISTIC: TIME AVERAGE
  66 ID: PLQ-T-2,02
     QUANTITY: TOTAL HEAT FLUX
     Coordinates (X,Y,Z):    8.250000E-01    1.649700E+00    2.500000E+00
     TEMPORAL STATISTIC: TIME AVERAGE
  67 ID: PLQ-B-0,0
     QUANTITY: TOTAL HEAT FLUX
     Coordinates (X,Y,Z):    8.250000E-01    3.000000E-04    3.000000E-04
     TEMPORAL STATISTIC: TIME AVERAGE
  68 ID: PLQ-B-0,5
     QUANTITY: TOTAL HEAT FLUX
     Coordinates (X,Y,Z):    8.250000E-01    3.000000E-04    5.000000E-01
     TEMPORAL STATISTIC: TIME AVERAGE
  69 ID: PLQ-B-1,0
     QUANTITY: TOTAL HEAT FLUX
     Coordinates (X,Y,Z):    8.250000E-01    3.000000E-04    1.000000E+00
     TEMPORAL STATISTIC: TIME AVERAGE
  70 ID: PLQ-B-1,5
     QUANTITY: TOTAL HEAT FLUX
     Coordinates (X,Y,Z):    8.250000E-01    3.000000E-04    1.500000E+00
     TEMPORAL STATISTIC: TIME AVERAGE
  71 ID: PLQ-B-2,0
     QUANTITY: TOTAL HEAT FLUX
     Coordinates (X,Y,Z):    8.250000E-01    3.000000E-04    2.000000E+00
     TEMPORAL STATISTIC: TIME AVERAGE
  72 ID: PLQ-B-2,5
     QUANTITY: TOTAL HEAT FLUX
     Coordinates (X,Y,Z):    8.250000E-01    3.000000E-04    2.500000E+00
     TEMPORAL STATISTIC: TIME AVERAGE


 Slice File Information, Mesh     1

   1 Nodes:  28  28   0  14   0  20, Quantity: TEMPERATURE


 Boundary File Information

   1 Quantity: RADIATIVE HEAT FLUX
   2 Quantity: INCIDENT HEAT FLUX
   3 Quantity: TOTAL HEAT FLUX


 Radiation Model Information

   Number of control angles  416
   Time step increment         1
   Angle increment             1
   Theta band N_phi   Solid angle
     1:        4     0.030
     2:       12     0.030
     3:       20     0.029
     4:       24     0.033
     5:       32     0.030
     6:       36     0.030
     7:       40     0.029
     8:       40     0.031
     9:       40     0.031
    10:       40     0.029
    11:       36     0.030
    12:       32     0.030
    13:       24     0.033
    14:       20     0.029
    15:       12     0.030
    16:        4     0.030
   Using gray gas absorption.
   Mean beam length  1.000E-01 m
 
 

 Run Time Diagnostics

 Time Step:      1, Simulation Time:      0.03 s, Step Size: 0.02739 s
 Time Step:      2, Simulation Time:      0.05 s, Step Size: 0.02739 s
 Time Step:      3, Simulation Time:      0.08 s, Step Size: 0.02739 s
 Time Step:      4, Simulation Time:      0.11 s, Step Size: 0.02739 s
 Time Step:      5, Simulation Time:      0.14 s, Step Size: 0.02739 s
 Time Step:      6, Simulation Time:      0.16 s, Step Size: 0.02739 s
 Time Step:      7, Simulation Time:      0.19 s, Step Size: 0.02739 s
 Time Step:      8, Simulation Time:      0.22 s, Step Size: 0.02739 s
 Time Step:      9, Simulation Time:      0.25 s, Step Size: 0.02739 s
 Time Step:     10, Simulation Time:      0.27 s, Step Size: 0.02739 s
 Time Step:     20, Simulation Time:      0.44 s, Step Size: 0.01091 s
 Time Step:     30, Simulation Time:      0.53 s, Step Size: 0.00714 s
 Time Step:     40, Simulation Time:      0.60 s, Step Size: 0.00634 s
 Time Step:     50, Simulation Time:      0.65 s, Step Size: 0.00568 s
 Time Step:     60, Simulation Time:      0.70 s, Step Size: 0.00452 s
 Time Step:     70, Simulation Time:      0.74 s, Step Size: 0.00397 s
 Time Step:     80, Simulation Time:      0.78 s, Step Size: 0.00397 s
 Time Step:     90, Simulation Time:      0.82 s, Step Size: 0.00355 s
 Time Step:    100, Simulation Time:      0.85 s, Step Size: 0.00317 s
 Time Step:    200, Simulation Time:      1.11 s, Step Size: 0.00207 s
 Time Step:    300, Simulation Time:      1.31 s, Step Size: 0.00172 s
 Time Step:    400, Simulation Time:      1.49 s, Step Size: 0.00189 s
 Time Step:    500, Simulation Time:      1.69 s, Step Size: 0.00168 s
 Time Step:    600, Simulation Time:      1.88 s, Step Size: 0.00185 s
 Time Step:    700, Simulation Time:      2.07 s, Step Size: 0.00203 s
 Time Step:    800, Simulation Time:      2.27 s, Step Size: 0.00197 s
 Time Step:    900, Simulation Time:      2.50 s, Step Size: 0.00189 s
 Time Step:   1000, Simulation Time:      2.69 s, Step Size: 0.00194 s
 Time Step:   1100, Simulation Time:      2.89 s, Step Size: 0.00187 s
 Time Step:   1200, Simulation Time:      3.07 s, Step Size: 0.00183 s
 Time Step:   1300, Simulation Time:      3.25 s, Step Size: 0.00183 s
 Time Step:   1400, Simulation Time:      3.45 s, Step Size: 0.00222 s
 Time Step:   1500, Simulation Time:      3.65 s, Step Size: 0.00209 s
 Time Step:   1600, Simulation Time:      3.86 s, Step Size: 0.00186 s
 Time Step:   1700, Simulation Time:      4.06 s, Step Size: 0.00200 s
 Time Step:   1800, Simulation Time:      4.26 s, Step Size: 0.00220 s
 Time Step:   1900, Simulation Time:      4.47 s, Step Size: 0.00173 s
 Time Step:   2000, Simulation Time:      4.64 s, Step Size: 0.00198 s
 Time Step:   2100, Simulation Time:      4.83 s, Step Size: 0.00177 s
 Time Step:   2200, Simulation Time:      5.03 s, Step Size: 0.00214 s
 Time Step:   2300, Simulation Time:      5.22 s, Step Size: 0.00156 s
 Time Step:   2400, Simulation Time:      5.39 s, Step Size: 0.00201 s
 Time Step:   2500, Simulation Time:      5.58 s, Step Size: 0.00178 s
 Time Step:   2600, Simulation Time:      5.77 s, Step Size: 0.00215 s
 Time Step:   2700, Simulation Time:      5.95 s, Step Size: 0.00142 s
 Time Step:   2800, Simulation Time:      6.13 s, Step Size: 0.00208 s
 Time Step:   2900, Simulation Time:      6.31 s, Step Size: 0.00192 s
 Time Step:   3000, Simulation Time:      6.51 s, Step Size: 0.00190 s
 Time Step:   3100, Simulation Time:      6.70 s, Step Size: 0.00206 s
 Time Step:   3200, Simulation Time:      6.89 s, Step Size: 0.00185 s
 Time Step:   3300, Simulation Time:      7.08 s, Step Size: 0.00196 s
 Time Step:   3400, Simulation Time:      7.26 s, Step Size: 0.00186 s
 Time Step:   3500, Simulation Time:      7.45 s, Step Size: 0.00190 s
 Time Step:   3600, Simulation Time:      7.65 s, Step Size: 0.00178 s
 Time Step:   3700, Simulation Time:      7.83 s, Step Size: 0.00178 s
 Time Step:   3800, Simulation Time:      8.01 s, Step Size: 0.00172 s
 Time Step:   3900, Simulation Time:      8.21 s, Step Size: 0.00186 s
 Time Step:   4000, Simulation Time:      8.39 s, Step Size: 0.00176 s
 Time Step:   4100, Simulation Time:      8.58 s, Step Size: 0.00187 s
 Time Step:   4200, Simulation Time:      8.77 s, Step Size: 0.00201 s
 Time Step:   4300, Simulation Time:      8.96 s, Step Size: 0.00181 s
 Time Step:   4400, Simulation Time:      9.14 s, Step Size: 0.00181 s
 Time Step:   4500, Simulation Time:      9.31 s, Step Size: 0.00173 s
 Time Step:   4600, Simulation Time:      9.51 s, Step Size: 0.00178 s
 Time Step:   4700, Simulation Time:      9.70 s, Step Size: 0.00194 s
 Time Step:   4800, Simulation Time:      9.88 s, Step Size: 0.00191 s
 Time Step:   4900, Simulation Time:     10.08 s, Step Size: 0.00194 s
 Time Step:   5000, Simulation Time:     10.27 s, Step Size: 0.00189 s
 Time Step:   5100, Simulation Time:     10.45 s, Step Size: 0.00181 s
 Time Step:   5200, Simulation Time:     10.66 s, Step Size: 0.00194 s
 Time Step:   5300, Simulation Time:     10.85 s, Step Size: 0.00194 s
 Time Step:   5400, Simulation Time:     11.06 s, Step Size: 0.00186 s
 Time Step:   5500, Simulation Time:     11.25 s, Step Size: 0.00202 s
 Time Step:   5600, Simulation Time:     11.44 s, Step Size: 0.00200 s
 Time Step:   5700, Simulation Time:     11.62 s, Step Size: 0.00203 s
 Time Step:   5800, Simulation Time:     11.81 s, Step Size: 0.00176 s
 Time Step:   5900, Simulation Time:     12.00 s, Step Size: 0.00194 s
 Time Step:   6000, Simulation Time:     12.18 s, Step Size: 0.00184 s
 Time Step:   6100, Simulation Time:     12.38 s, Step Size: 0.00182 s
 Time Step:   6200, Simulation Time:     12.56 s, Step Size: 0.00179 s
 Time Step:   6300, Simulation Time:     12.74 s, Step Size: 0.00173 s
 Time Step:   6400, Simulation Time:     12.93 s, Step Size: 0.00191 s
 Time Step:   6500, Simulation Time:     13.12 s, Step Size: 0.00181 s
 Time Step:   6600, Simulation Time:     13.31 s, Step Size: 0.00199 s
 Time Step:   6700, Simulation Time:     13.49 s, Step Size: 0.00197 s
 Time Step:   6800, Simulation Time:     13.69 s, Step Size: 0.00177 s
 Time Step:   6900, Simulation Time:     13.86 s, Step Size: 0.00204 s
 Time Step:   7000, Simulation Time:     14.06 s, Step Size: 0.00179 s
 Time Step:   7100, Simulation Time:     14.26 s, Step Size: 0.00209 s
 Time Step:   7200, Simulation Time:     14.48 s, Step Size: 0.00183 s
 Time Step:   7300, Simulation Time:     14.68 s, Step Size: 0.00197 s
 Time Step:   7400, Simulation Time:     14.87 s, Step Size: 0.00193 s
 Time Step:   7468, Simulation Time:     15.00 s, Step Size: 0.00053 s


 Time Stepping Wall Clock Time (s):     5629.567
 Total Elapsed Wall Clock Time (s):     5638.633

STOP: FDS completed successfully (CHID: 18)
