
 Fire Dynamics Simulator

 Current Date     : January 12, 2023  17:23:36
 Revision         : FDS6.7.6-0-g5064c500c-release
 Revision Date    : Thu May 27 12:19:10 2021 -0400
 Compiler         : Intel ifort 2021.1
 Compilation Date : Tue 06/01/2021  11:25 AM

 MPI Enabled;    Number of MPI Processes:      40
 OpenMP Enabled; Number of OpenMP Threads:      1

 MPI version: 3.1
 MPI library version: Intel(R) MPI Library 2021.1 for Windows* OS


 Job TITLE        : 
 Job ID string    : 2


 Miscellaneous Parameters

   Simulation Start Time (s)          0.0
   Simulation End Time (s)           15.0
   LES Calculation
   Eddy Viscosity:           Deardorff Model (C_DEARDORFF = 0.10)
   Near-wall Eddy Viscosity: WALE Model (C_WALE = 0.60)
   Turbulent Prandtl Number:         0.50
   Turbulent Schmidt Number:         0.50
   Background Pressure (Pa):    101325.00
   Ambient Temperature (C):         20.00


 Mass Fraction Transformation Matrix to Convert Species Mixtures (Columns) to Primitive Species (Rows)

                         AIR       REAC_FUE  PRODUCTS
   REAC_FUEL             0.000000  1.000000  0.000000
   NITROGEN              0.762470  0.000000  0.715424
   OXYGEN                0.230997  0.000000  0.000000
   CARBON DIOXIDE        0.000591  0.000000  0.190254
   WATER VAPOR           0.005941  0.000000  0.094321
   CARBON MONOXIDE       0.000000  0.000000  0.000000
   SOOT                  0.000000  0.000000  0.000000
   HYDROGEN              0.000000  0.000000  0.000000
   HYDROGEN CYANIDE      0.000000  0.000000  0.000000


 Primitive Species Information

   REAC_FUEL
   Gas Species
   Molecular Weight (g/mol)           100.20194
   Ambient Density (kg/m^3)            4.166
   Enthalpy of Formation (J/kg)        1.38E+06

   NITROGEN
   Gas Species
   Molecular Weight (g/mol)            28.01340
   Ambient Density (kg/m^3)            1.165
   Enthalpy of Formation (J/kg)        0.00E+00

   OXYGEN
   Gas Species
   Molecular Weight (g/mol)            31.99880
   Ambient Density (kg/m^3)            1.330
   Enthalpy of Formation (J/kg)        0.00E+00

   CARBON DIOXIDE
   Gas Species
   Molecular Weight (g/mol)            44.00950
   Ambient Density (kg/m^3)            1.830
   Enthalpy of Formation (J/kg)       -8.94E+06

   WATER VAPOR
   Gas Species
   Molecular Weight (g/mol)            18.01528
   Ambient Density (kg/m^3)            0.749
   Enthalpy of Formation (J/kg)       -1.34E+07

   CARBON MONOXIDE
   Gas Species
   Molecular Weight (g/mol)            28.01010
   Ambient Density (kg/m^3)            1.164
   Enthalpy of Formation (J/kg)       -3.95E+06

   SOOT
   Gas Species
   Molecular Weight (g/mol)            12.01070
   Ambient Density (kg/m^3)            0.499
   Enthalpy of Formation (J/kg)        0.00E+00

   HYDROGEN
   Gas Species
   Molecular Weight (g/mol)             2.01588
   Ambient Density (kg/m^3)            0.084
   Enthalpy of Formation (J/kg)        0.00E+00

   HYDROGEN CYANIDE
   Gas Species
   Molecular Weight (g/mol)            27.02534
   Ambient Density (kg/m^3)            1.123
   Enthalpy of Formation (J/kg)        4.92E+06


 Tracked (Lumped) Species Information

   AIR
   Molecular Weight (g/mol)            28.75198
   Ambient Density (kg/m^3)            1.195
   Initial Mass Fraction               1.000
   Enthalpy of Formation (J/kg)     -8.50E+04

   Sub Species                    Mass Fraction     Mole Fraction
   NITROGEN                       7.624699E-01      7.825727E-01
   OXYGEN                         2.309974E-01      2.075588E-01
   CARBON DIOXIDE                 5.914650E-04      3.864118E-04
   WATER VAPOR                    5.941209E-03      9.482037E-03
 
     Viscosity (kg/m/s) Ambient,  293 K:  1.80E-05
                                  500 K:  2.61E-05
                                 1000 K:  4.13E-05
                                 1500 K:  5.37E-05
   Therm. Cond. (W/m/K) Ambient,  293 K:  2.56E-02
                                  500 K:  3.81E-02
                                 1000 K:  6.69E-02
                                 1500 K:  9.25E-02
        Enthalpy (J/kg) Ambient,  293 K: -9.01E+04
                                  500 K:  1.22E+05
                                 1000 K:  6.72E+05
                                 1500 K:  1.27E+06
    Spec. Heat (J/kg/K) Ambient,  293 K:  1.02E+03
                                  500 K:  1.04E+03
                                 1000 K:  1.16E+03
                                 1500 K:  1.23E+03
   Diff. Coeff. (m^2/s) Ambient,  293 K:  1.99E-05
                                  500 K:  4.96E-05
                                 1000 K:  1.58E-04
                                 1500 K:  3.09E-04

   REAC_FUEL
   Molecular Weight (g/mol)           100.20194
   Ambient Density (kg/m^3)            4.166
   Initial Mass Fraction               0.000
   Enthalpy of Formation (J/kg)      1.38E+06

   Sub Species                    Mass Fraction     Mole Fraction
   REAC_FUEL                      1.000000E+00      1.000000E+00
 
     Viscosity (kg/m/s) Ambient,  293 K:  3.29E-05
                                  500 K:  4.75E-05
                                 1000 K:  7.47E-05
                                 1500 K:  9.71E-05
   Therm. Cond. (W/m/K) Ambient,  293 K:  1.35E-02
                                  500 K:  1.94E-02
                                 1000 K:  3.05E-02
                                 1500 K:  3.97E-02
        Enthalpy (J/kg) Ambient,  293 K:  1.38E+06
                                  500 K:  1.44E+06
                                 1000 K:  1.59E+06
                                 1500 K:  1.73E+06
    Spec. Heat (J/kg/K) Ambient,  293 K:  2.90E+02
                                  500 K:  2.90E+02
                                 1000 K:  2.90E+02
                                 1500 K:  2.90E+02
   Diff. Coeff. (m^2/s) Ambient,  293 K:  1.59E-05
                                  500 K:  3.95E-05
                                 1000 K:  1.25E-04
                                 1500 K:  2.46E-04

   PRODUCTS
   Molecular Weight (g/mol)            28.49222
   Ambient Density (kg/m^3)            1.184
   Initial Mass Fraction               0.000
   Enthalpy of Formation (J/kg)     -2.97E+06

   Sub Species                    Mass Fraction     Mole Fraction
   NITROGEN                       7.154242E-01      7.276525E-01
   CARBON DIOXIDE                 1.902544E-01      1.231727E-01
   WATER VAPOR                    9.432140E-02      1.491748E-01
   CARBON MONOXIDE                0.000000E+00      0.000000E+00
   SOOT                           0.000000E+00      0.000000E+00
   HYDROGEN CYANIDE               0.000000E+00      0.000000E+00
 
     Viscosity (kg/m/s) Ambient,  293 K:  1.62E-05
                                  500 K:  2.40E-05
                                 1000 K:  3.90E-05
                                 1500 K:  5.15E-05
   Therm. Cond. (W/m/K) Ambient,  293 K:  2.34E-02
                                  500 K:  3.62E-02
                                 1000 K:  6.69E-02
                                 1500 K:  9.57E-02
        Enthalpy (J/kg) Ambient,  293 K: -2.97E+06
                                  500 K: -2.74E+06
                                 1000 K: -2.14E+06
                                 1500 K: -1.47E+06
    Spec. Heat (J/kg/K) Ambient,  293 K:  1.08E+03
                                  500 K:  1.13E+03
                                 1000 K:  1.29E+03
                                 1500 K:  1.39E+03
   Diff. Coeff. (m^2/s) Ambient,  293 K:  1.94E-05
                                  500 K:  4.93E-05
                                 1000 K:  1.59E-04
                                 1500 K:  3.13E-04


 Gas Phase Reaction Information

   Reaction ID:  heptan

   Fuel                                           Heat of Combustion (kJ/kg)
   REAC_FUEL                                                      48181.0023

   Stoichiometry

   Primitive Species Stoich. Coeff.
   Species ID                                                          Molar
   REAC_FUEL                                                       -1.000000
   OXYGEN                                                         -11.000000
   CARBON DIOXIDE                                                   7.000000
   WATER VAPOR                                                      8.000000

   Tracked (Lumped) Species Stoich. Coeff.
   Species ID                                             Molar         Mass
   AIR                                               -52.997025   -15.206987
   REAC_FUEL                                          -1.000000    -1.000000
   PRODUCTS                                           56.997025    16.206987

   Reaction Kinetics

   Arrhenius Parameters
   Pre-exponential:    Infinite
   Activation Energy:  N/A

   ODE Solver:  EXPLICIT EULER
   Extinction Model:  EXTINCTION 2
   Auto-Ignition Temperature (K):       0.0
   Critical Flame Temperature (K):   1700.2


 Material Information

   1 WALL                                                        
     Emissivity                      1.000
     Density (kg/m3)                2280.0
     Specific Heat (kJ/kg/K)      1.04E+00
     Conductivity (W/m/K)          1.80E+00


 Surface Conditions

   0 INERT (DEFAULT)

   1 WALL
     Material List
          1  WALL
     Layer  1
        Thickness   (m):  0.20000
        Density (kg/m3):  2280.00
        WALL, Mass fraction:    1.00
     Total surface density   456.000 kg/m2
     Reaction products considered from the first  0.50 layers.
     Solid Phase Node, Layer, Coordinates(m):
                    0      1       0.0000000
                    1      1       0.0007874
                    2      1       0.0023622
                    3      1       0.0055118
                    4      1       0.0118110
                    5      1       0.0244094
                    6      1       0.0496063
                    7      1       0.1000000
                    8      1       0.1503937
                    9      1       0.1755906
                   10      1       0.1881890
                   11      1       0.1944882
                   12      1       0.1976378
                   13      1       0.1992126
                   14      1       0.2000000
     Exposed Backing

   2 FIRE
     Wall or Vent Temperature (C)   300.0
     REAC_FUEL Mass Flux (kg/s/m2)   3.62E-02

   3 OPEN
     Passive Vent to Atmosphere

   4 MIRROR
     Symmetry Plane

   5 INTERPOLATED

   6 PERIODIC

   7 HVAC

   8 MASSLESS TRACER

   9 DROPLET

  10 EVACUATION_OUTFLOW
     Normal Velocity (m/s)         0.000

  11 MASSLESS TARGET

  12 PERIODIC FLOW ONLY


 Cut-off Density and Temperature

    Minimum Temperature:   -10.0 C
    Maximum Temperature:  2726.8 C
    Minimum Density:  1.195E-01 kg/m3
    Maximum Density:  9.281E+00 kg/m3


 Device Coordinates

     1 Coords:      0.000300      0.825000      0.000300, Make: null, ID: PQ-L-0,0, Quantity: INCIDENT HEAT FLUX
     2 Coords:      0.000300      0.825000      0.500000, Make: null, ID: PQ-L-0,5, Quantity: INCIDENT HEAT FLUX
     3 Coords:      0.000300      0.825000      1.000000, Make: null, ID: PQ-L-1,0, Quantity: INCIDENT HEAT FLUX
     4 Coords:      0.000300      0.825000      1.500000, Make: null, ID: PQ-L-1,5, Quantity: INCIDENT HEAT FLUX
     5 Coords:      0.000300      0.825000      2.000000, Make: null, ID: PQ-L-2,0, Quantity: INCIDENT HEAT FLUX
     6 Coords:      0.000300      0.825000      2.500000, Make: null, ID: PQ-L-2,5, Quantity: INCIDENT HEAT FLUX
     7 Coords:      1.649700      0.825000      0.000300, Make: null, ID: PQ-R-0,0, Quantity: INCIDENT HEAT FLUX
     8 Coords:      1.649700      0.825000      0.500000, Make: null, ID: PQ-R-0,5, Quantity: INCIDENT HEAT FLUX
     9 Coords:      1.649700      0.825000      1.000000, Make: null, ID: PQ-R-1,0, Quantity: INCIDENT HEAT FLUX
    10 Coords:      1.649700      0.825000      1.500000, Make: null, ID: PQ-R-1,5, Quantity: INCIDENT HEAT FLUX
    11 Coords:      1.649700      0.825000      2.000000, Make: null, ID: PQ-R-2,0, Quantity: INCIDENT HEAT FLUX
    12 Coords:      1.649700      0.825000      2.500000, Make: null, ID: PQ-R-2,5, Quantity: INCIDENT HEAT FLUX
    13 Coords:      0.825000      1.649700      0.000300, Make: null, ID: PQ-T-0,0, Quantity: INCIDENT HEAT FLUX
    14 Coords:      0.825000      1.649700      0.500000, Make: null, ID: PQ-T-0,5, Quantity: INCIDENT HEAT FLUX
    15 Coords:      0.825000      1.649700      1.000000, Make: null, ID: PQ-T-1,0, Quantity: INCIDENT HEAT FLUX
    16 Coords:      0.825000      1.649700      1.500000, Make: null, ID: PQ-T-1,5, Quantity: INCIDENT HEAT FLUX
    17 Coords:      0.825000      1.649700      2.000000, Make: null, ID: PQ-T-2,0, Quantity: INCIDENT HEAT FLUX
    18 Coords:      0.825000      1.649700      2.500000, Make: null, ID: PQ-T-2,5, Quantity: INCIDENT HEAT FLUX
    19 Coords:      0.825000      0.000300      0.000300, Make: null, ID: PQ-B-0,0, Quantity: INCIDENT HEAT FLUX
    20 Coords:      0.825000      0.000300      0.500000, Make: null, ID: PQ-B-0,5, Quantity: INCIDENT HEAT FLUX
    21 Coords:      0.825000      0.000300      1.000000, Make: null, ID: PQ-B-1,0, Quantity: INCIDENT HEAT FLUX
    22 Coords:      0.825000      0.000300      1.500000, Make: null, ID: PQ-B-1,5, Quantity: INCIDENT HEAT FLUX
    23 Coords:      0.825000      0.000300      2.000000, Make: null, ID: PQ-B-2,0, Quantity: INCIDENT HEAT FLUX
    24 Coords:      0.825000      0.000300      2.500000, Make: null, ID: PQ-B-2,5, Quantity: INCIDENT HEAT FLUX
    25 Coords:      0.000300      0.825000      0.000300, Make: null, ID: LQ-L-0,0, Quantity: RADIATIVE HEAT FLUX
    26 Coords:      0.000300      0.825000      0.500000, Make: null, ID: LQ-L-0,5, Quantity: RADIATIVE HEAT FLUX
    27 Coords:      0.000300      0.825000      1.000000, Make: null, ID: LQ-L-1,0, Quantity: RADIATIVE HEAT FLUX
    28 Coords:      0.000300      0.825000      1.500000, Make: null, ID: LQ-L-1,5, Quantity: RADIATIVE HEAT FLUX
    29 Coords:      0.000300      0.825000      2.000000, Make: null, ID: LQ-L-2,0, Quantity: RADIATIVE HEAT FLUX
    30 Coords:      0.000300      0.825000      2.500000, Make: null, ID: LQ-L-2,5, Quantity: RADIATIVE HEAT FLUX
    31 Coords:      1.649700      0.825000      0.000300, Make: null, ID: LQ-R-0,0, Quantity: RADIATIVE HEAT FLUX
    32 Coords:      1.649700      0.825000      0.500000, Make: null, ID: LQ-R-0,5, Quantity: RADIATIVE HEAT FLUX
    33 Coords:      1.649700      0.825000      1.000000, Make: null, ID: LQ-R-1,0, Quantity: RADIATIVE HEAT FLUX
    34 Coords:      1.649700      0.825000      1.500000, Make: null, ID: LQ-R-1,5, Quantity: RADIATIVE HEAT FLUX
    35 Coords:      1.649700      0.825000      2.000000, Make: null, ID: LQ-R-2,0, Quantity: RADIATIVE HEAT FLUX
    36 Coords:      1.649700      0.825000      2.500000, Make: null, ID: LQ-R-2,5, Quantity: RADIATIVE HEAT FLUX
    37 Coords:      0.825000      1.649700      0.000300, Make: null, ID: LQ-T-0,0, Quantity: RADIATIVE HEAT FLUX
    38 Coords:      0.825000      1.649700      0.500000, Make: null, ID: LQ-T-0,5, Quantity: RADIATIVE HEAT FLUX
    39 Coords:      0.825000      1.649700      1.000000, Make: null, ID: LQ-T-1,0, Quantity: RADIATIVE HEAT FLUX
    40 Coords:      0.825000      1.649700      1.500000, Make: null, ID: LQ-T-1,5, Quantity: RADIATIVE HEAT FLUX
    41 Coords:      0.825000      1.649700      2.000000, Make: null, ID: LQ-T-2,0, Quantity: RADIATIVE HEAT FLUX
    42 Coords:      0.825000      1.649700      2.500000, Make: null, ID: LQ-T-2,5, Quantity: RADIATIVE HEAT FLUX
    43 Coords:      0.825000      0.000300      0.000300, Make: null, ID: LQ-B-0,0, Quantity: RADIATIVE HEAT FLUX
    44 Coords:      0.825000      0.000300      0.500000, Make: null, ID: LQ-B-0,5, Quantity: RADIATIVE HEAT FLUX
    45 Coords:      0.825000      0.000300      1.000000, Make: null, ID: LQ-B-1,0, Quantity: RADIATIVE HEAT FLUX
    46 Coords:      0.825000      0.000300      1.500000, Make: null, ID: LQ-B-1,5, Quantity: RADIATIVE HEAT FLUX
    47 Coords:      0.825000      0.000300      2.000000, Make: null, ID: LQ-B-2,0, Quantity: RADIATIVE HEAT FLUX
    48 Coords:      0.825000      0.000300      2.500000, Make: null, ID: LQ-B-2,5, Quantity: RADIATIVE HEAT FLUX
    49 Coords:      0.000300      0.825000      0.000300, Make: null, ID: PLQ-L-0,0, Quantity: TOTAL HEAT FLUX
    50 Coords:      0.000300      0.825000      0.500000, Make: null, ID: PLQ-L-0,5, Quantity: TOTAL HEAT FLUX
    51 Coords:      0.000300      0.825000      1.000000, Make: null, ID: PLQ-L-1,0, Quantity: TOTAL HEAT FLUX
    52 Coords:      0.000300      0.825000      1.500000, Make: null, ID: PLQ-L-1,5, Quantity: TOTAL HEAT FLUX
    53 Coords:      0.000300      0.825000      2.000000, Make: null, ID: PLQ-L-2,0, Quantity: TOTAL HEAT FLUX
    54 Coords:      0.000300      0.825000      2.500000, Make: null, ID: PLQ-L-2,5, Quantity: TOTAL HEAT FLUX
    55 Coords:      1.649700      0.825000      0.000300, Make: null, ID: PLQ-R-0,0, Quantity: TOTAL HEAT FLUX
    56 Coords:      1.649700      0.825000      0.500000, Make: null, ID: PLQ-R-0,5, Quantity: TOTAL HEAT FLUX
    57 Coords:      1.649700      0.825000      1.000000, Make: null, ID: PLQ-R-1,0, Quantity: TOTAL HEAT FLUX
    58 Coords:      1.649700      0.825000      1.500000, Make: null, ID: PLQ-R-1,5, Quantity: TOTAL HEAT FLUX
    59 Coords:      1.649700      0.825000      2.000000, Make: null, ID: PLQ-R-2,0, Quantity: TOTAL HEAT FLUX
    60 Coords:      1.649700      0.825000      2.500000, Make: null, ID: PLQ-R-2,5, Quantity: TOTAL HEAT FLUX
    61 Coords:      0.825000      1.649700      0.000300, Make: null, ID: PLQ-T-0,0, Quantity: TOTAL HEAT FLUX
    62 Coords:      0.825000      1.649700      0.500000, Make: null, ID: PLQ-T-0,5, Quantity: TOTAL HEAT FLUX
    63 Coords:      0.825000      1.649700      1.000000, Make: null, ID: PLQ-T-1,0, Quantity: TOTAL HEAT FLUX
    64 Coords:      0.825000      1.649700      1.500000, Make: null, ID: PLQ-T-1,5, Quantity: TOTAL HEAT FLUX
    65 Coords:      0.825000      1.649700      2.000000, Make: null, ID: PLQ-T-2,0, Quantity: TOTAL HEAT FLUX
    66 Coords:      0.825000      1.649700      2.500000, Make: null, ID: PLQ-T-2,02, Quantity: TOTAL HEAT FLUX
    67 Coords:      0.825000      0.000300      0.000300, Make: null, ID: PLQ-B-0,0, Quantity: TOTAL HEAT FLUX
    68 Coords:      0.825000      0.000300      0.500000, Make: null, ID: PLQ-B-0,5, Quantity: TOTAL HEAT FLUX
    69 Coords:      0.825000      0.000300      1.000000, Make: null, ID: PLQ-B-1,0, Quantity: TOTAL HEAT FLUX
    70 Coords:      0.825000      0.000300      1.500000, Make: null, ID: PLQ-B-1,5, Quantity: TOTAL HEAT FLUX
    71 Coords:      0.825000      0.000300      2.000000, Make: null, ID: PLQ-B-2,0, Quantity: TOTAL HEAT FLUX
    72 Coords:      0.825000      0.000300      2.500000, Make: null, ID: PLQ-B-2,5, Quantity: TOTAL HEAT FLUX


 Slice File Information, Mesh     1

   Sampling Interval (s)             1.000

   1 Nodes:  28  28   0  14   0  20, Quantity: TEMPERATURE


 Boundary File Information

   Sampling Interval (s)             2.000

   1 Quantity: RADIATIVE HEAT FLUX
   2 Quantity: INCIDENT HEAT FLUX
   3 Quantity: TOTAL HEAT FLUX


 Radiation Model Information

   Number of control angles  104
   Time step increment         3
   Angle increment             5
   Theta band N_phi   Solid angle
     1:        4     0.120
     2:       12     0.114
     3:       16     0.127
     4:       20     0.120
     5:       20     0.120
     6:       16     0.127
     7:       12     0.114
     8:        4     0.120
   Using gray gas absorption.
   Mean beam length  0.100 m
 
 

 Run Time Diagnostics

 Time Step:      1, Simulation Time:      0.03 s, Step Size: 0.02739 s
 Time Step:      2, Simulation Time:      0.05 s, Step Size: 0.02739 s
 Time Step:      3, Simulation Time:      0.08 s, Step Size: 0.02739 s
 Time Step:      4, Simulation Time:      0.11 s, Step Size: 0.02739 s
 Time Step:      5, Simulation Time:      0.14 s, Step Size: 0.02739 s
 Time Step:      6, Simulation Time:      0.16 s, Step Size: 0.02739 s
 Time Step:      7, Simulation Time:      0.19 s, Step Size: 0.02739 s
 Time Step:      8, Simulation Time:      0.22 s, Step Size: 0.02739 s
 Time Step:      9, Simulation Time:      0.25 s, Step Size: 0.02739 s
 Time Step:     10, Simulation Time:      0.27 s, Step Size: 0.02739 s
 Time Step:     20, Simulation Time:      0.47 s, Step Size: 0.01372 s
 Time Step:     30, Simulation Time:      0.59 s, Step Size: 0.01084 s
 Time Step:     40, Simulation Time:      0.67 s, Step Size: 0.00844 s
 Time Step:     50, Simulation Time:      0.75 s, Step Size: 0.00749 s
 Time Step:     60, Simulation Time:      0.82 s, Step Size: 0.00645 s
 Time Step:     70, Simulation Time:      0.87 s, Step Size: 0.00562 s
 Time Step:     80, Simulation Time:      0.93 s, Step Size: 0.00503 s
 Time Step:     90, Simulation Time:      0.97 s, Step Size: 0.00439 s
 Time Step:    100, Simulation Time:      1.01 s, Step Size: 0.00429 s
 Time Step:    200, Simulation Time:      1.34 s, Step Size: 0.00332 s
 Time Step:    300, Simulation Time:      1.59 s, Step Size: 0.00257 s
 Time Step:    400, Simulation Time:      1.85 s, Step Size: 0.00233 s
 Time Step:    500, Simulation Time:      2.10 s, Step Size: 0.00256 s
 Time Step:    600, Simulation Time:      2.36 s, Step Size: 0.00247 s
 Time Step:    700, Simulation Time:      2.61 s, Step Size: 0.00259 s
 Time Step:    800, Simulation Time:      2.87 s, Step Size: 0.00240 s
 Time Step:    900, Simulation Time:      3.12 s, Step Size: 0.00237 s
 Time Step:   1000, Simulation Time:      3.37 s, Step Size: 0.00261 s
 Time Step:   1100, Simulation Time:      3.62 s, Step Size: 0.00254 s
 Time Step:   1200, Simulation Time:      3.90 s, Step Size: 0.00272 s
 Time Step:   1300, Simulation Time:      4.16 s, Step Size: 0.00228 s
 Time Step:   1400, Simulation Time:      4.41 s, Step Size: 0.00239 s
 Time Step:   1500, Simulation Time:      4.67 s, Step Size: 0.00282 s
 Time Step:   1600, Simulation Time:      4.95 s, Step Size: 0.00260 s
 Time Step:   1700, Simulation Time:      5.19 s, Step Size: 0.00232 s
 Time Step:   1800, Simulation Time:      5.44 s, Step Size: 0.00270 s
 Time Step:   1900, Simulation Time:      5.69 s, Step Size: 0.00251 s
 Time Step:   2000, Simulation Time:      5.95 s, Step Size: 0.00241 s
 Time Step:   2100, Simulation Time:      6.19 s, Step Size: 0.00256 s
 Time Step:   2200, Simulation Time:      6.44 s, Step Size: 0.00278 s
 Time Step:   2300, Simulation Time:      6.67 s, Step Size: 0.00238 s
 Time Step:   2400, Simulation Time:      6.94 s, Step Size: 0.00256 s
 Time Step:   2500, Simulation Time:      7.21 s, Step Size: 0.00253 s
 Time Step:   2600, Simulation Time:      7.48 s, Step Size: 0.00234 s
 Time Step:   2700, Simulation Time:      7.73 s, Step Size: 0.00243 s
 Time Step:   2800, Simulation Time:      7.98 s, Step Size: 0.00237 s
 Time Step:   2900, Simulation Time:      8.23 s, Step Size: 0.00253 s
 Time Step:   3000, Simulation Time:      8.51 s, Step Size: 0.00302 s
 Time Step:   3100, Simulation Time:      8.77 s, Step Size: 0.00245 s
 Time Step:   3200, Simulation Time:      9.04 s, Step Size: 0.00204 s
 Time Step:   3300, Simulation Time:      9.28 s, Step Size: 0.00221 s
 Time Step:   3400, Simulation Time:      9.53 s, Step Size: 0.00202 s
 Time Step:   3500, Simulation Time:      9.75 s, Step Size: 0.00230 s
 Time Step:   3600, Simulation Time:     10.01 s, Step Size: 0.00278 s
 Time Step:   3700, Simulation Time:     10.26 s, Step Size: 0.00244 s
 Time Step:   3800, Simulation Time:     10.52 s, Step Size: 0.00236 s
 Time Step:   3900, Simulation Time:     10.78 s, Step Size: 0.00314 s
 Time Step:   4000, Simulation Time:     11.05 s, Step Size: 0.00222 s
 Time Step:   4100, Simulation Time:     11.30 s, Step Size: 0.00260 s
 Time Step:   4200, Simulation Time:     11.56 s, Step Size: 0.00262 s
 Time Step:   4300, Simulation Time:     11.81 s, Step Size: 0.00218 s
 Time Step:   4400, Simulation Time:     12.07 s, Step Size: 0.00239 s
 Time Step:   4500, Simulation Time:     12.33 s, Step Size: 0.00263 s
 Time Step:   4600, Simulation Time:     12.57 s, Step Size: 0.00230 s
 Time Step:   4700, Simulation Time:     12.81 s, Step Size: 0.00296 s
 Time Step:   4800, Simulation Time:     13.07 s, Step Size: 0.00268 s
 Time Step:   4900, Simulation Time:     13.33 s, Step Size: 0.00263 s
 Time Step:   5000, Simulation Time:     13.60 s, Step Size: 0.00286 s
 Time Step:   5100, Simulation Time:     13.87 s, Step Size: 0.00280 s
 Time Step:   5200, Simulation Time:     14.13 s, Step Size: 0.00257 s
 Time Step:   5300, Simulation Time:     14.39 s, Step Size: 0.00245 s
 Time Step:   5400, Simulation Time:     14.64 s, Step Size: 0.00251 s
 Time Step:   5500, Simulation Time:     14.90 s, Step Size: 0.00260 s
 Time Step:   5538, Simulation Time:     15.00 s, Step Size: 0.00139 s


 Time Stepping Wall Clock Time (s):     2026.351
 Total Elapsed Wall Clock Time (s):     2036.580

STOP: FDS completed successfully (CHID: 2)
