
 Fire Dynamics Simulator

 Current Date     : January 12, 2023  17:07:13
 Revision         : FDS6.7.6-0-g5064c500c-release
 Revision Date    : Thu May 27 12:19:10 2021 -0400
 Compiler         : Intel ifort 2021.1
 Compilation Date : Tue 06/01/2021  11:25 AM

 MPI Enabled;    Number of MPI Processes:       8
 OpenMP Enabled; Number of OpenMP Threads:      1

 MPI version: 3.1
 MPI library version: Intel(R) MPI Library 2021.1 for Windows* OS


 Job TITLE        : 
 Job ID string    : 1


 Grid Dimensions, Mesh     1

   Cells in the X Direction             3
   Cells in the Y Direction             5
   Cells in the Z Direction             4
   Number of Grid Cells                60


 Physical Dimensions, Mesh     1

   Length (m)                       0.450
   Width  (m)                       0.750
   Height (m)                       0.600
   Initial Time Step (s)            0.137

 Grid Dimensions, Mesh     2

   Cells in the X Direction             4
   Cells in the Y Direction             5
   Cells in the Z Direction             4
   Number of Grid Cells                80


 Physical Dimensions, Mesh     2

   Length (m)                       0.600
   Width  (m)                       0.750
   Height (m)                       0.600
   Initial Time Step (s)            0.137

 Grid Dimensions, Mesh     3

   Cells in the X Direction             4
   Cells in the Y Direction             5
   Cells in the Z Direction             4
   Number of Grid Cells                80


 Physical Dimensions, Mesh     3

   Length (m)                       0.600
   Width  (m)                       0.750
   Height (m)                       0.600
   Initial Time Step (s)            0.137

 Grid Dimensions, Mesh     4

   Cells in the X Direction             4
   Cells in the Y Direction             6
   Cells in the Z Direction             4
   Number of Grid Cells                96


 Physical Dimensions, Mesh     4

   Length (m)                       0.600
   Width  (m)                       0.900
   Height (m)                       0.600
   Initial Time Step (s)            0.137

 Grid Dimensions, Mesh     5

   Cells in the X Direction             3
   Cells in the Y Direction             5
   Cells in the Z Direction             4
   Number of Grid Cells                60


 Physical Dimensions, Mesh     5

   Length (m)                       0.450
   Width  (m)                       0.750
   Height (m)                       0.600
   Initial Time Step (s)            0.137

 Grid Dimensions, Mesh     6

   Cells in the X Direction             4
   Cells in the Y Direction             5
   Cells in the Z Direction             4
   Number of Grid Cells                80


 Physical Dimensions, Mesh     6

   Length (m)                       0.600
   Width  (m)                       0.750
   Height (m)                       0.600
   Initial Time Step (s)            0.137

 Grid Dimensions, Mesh     7

   Cells in the X Direction             4
   Cells in the Y Direction             5
   Cells in the Z Direction             4
   Number of Grid Cells                80


 Physical Dimensions, Mesh     7

   Length (m)                       0.600
   Width  (m)                       0.750
   Height (m)                       0.600
   Initial Time Step (s)            0.137

 Grid Dimensions, Mesh     8

   Cells in the X Direction             4
   Cells in the Y Direction             6
   Cells in the Z Direction             4
   Number of Grid Cells                96


 Physical Dimensions, Mesh     8

   Length (m)                       0.600
   Width  (m)                       0.900
   Height (m)                       0.600
   Initial Time Step (s)            0.137

 Grid Dimensions, Mesh     9

   Cells in the X Direction             3
   Cells in the Y Direction             5
   Cells in the Z Direction             4
   Number of Grid Cells                60


 Physical Dimensions, Mesh     9

   Length (m)                       0.450
   Width  (m)                       0.750
   Height (m)                       0.600
   Initial Time Step (s)            0.137

 Grid Dimensions, Mesh    10

   Cells in the X Direction             4
   Cells in the Y Direction             5
   Cells in the Z Direction             4
   Number of Grid Cells                80


 Physical Dimensions, Mesh    10

   Length (m)                       0.600
   Width  (m)                       0.750
   Height (m)                       0.600
   Initial Time Step (s)            0.137

 Grid Dimensions, Mesh    11

   Cells in the X Direction             4
   Cells in the Y Direction             5
   Cells in the Z Direction             4
   Number of Grid Cells                80


 Physical Dimensions, Mesh    11

   Length (m)                       0.600
   Width  (m)                       0.750
   Height (m)                       0.600
   Initial Time Step (s)            0.137

 Grid Dimensions, Mesh    12

   Cells in the X Direction             4
   Cells in the Y Direction             6
   Cells in the Z Direction             4
   Number of Grid Cells                96


 Physical Dimensions, Mesh    12

   Length (m)                       0.600
   Width  (m)                       0.900
   Height (m)                       0.600
   Initial Time Step (s)            0.137

 Grid Dimensions, Mesh    13

   Cells in the X Direction             3
   Cells in the Y Direction             5
   Cells in the Z Direction             4
   Number of Grid Cells                60


 Physical Dimensions, Mesh    13

   Length (m)                       0.450
   Width  (m)                       0.750
   Height (m)                       0.600
   Initial Time Step (s)            0.137

 Grid Dimensions, Mesh    14

   Cells in the X Direction             4
   Cells in the Y Direction             5
   Cells in the Z Direction             4
   Number of Grid Cells                80


 Physical Dimensions, Mesh    14

   Length (m)                       0.600
   Width  (m)                       0.750
   Height (m)                       0.600
   Initial Time Step (s)            0.137

 Grid Dimensions, Mesh    15

   Cells in the X Direction             4
   Cells in the Y Direction             5
   Cells in the Z Direction             4
   Number of Grid Cells                80


 Physical Dimensions, Mesh    15

   Length (m)                       0.600
   Width  (m)                       0.750
   Height (m)                       0.600
   Initial Time Step (s)            0.137

 Grid Dimensions, Mesh    16

   Cells in the X Direction             4
   Cells in the Y Direction             6
   Cells in the Z Direction             4
   Number of Grid Cells                96


 Physical Dimensions, Mesh    16

   Length (m)                       0.600
   Width  (m)                       0.900
   Height (m)                       0.600
   Initial Time Step (s)            0.137

 Grid Dimensions, Mesh    17

   Cells in the X Direction             3
   Cells in the Y Direction             5
   Cells in the Z Direction             4
   Number of Grid Cells                60


 Physical Dimensions, Mesh    17

   Length (m)                       0.450
   Width  (m)                       0.750
   Height (m)                       0.600
   Initial Time Step (s)            0.137

 Grid Dimensions, Mesh    18

   Cells in the X Direction             3
   Cells in the Y Direction             6
   Cells in the Z Direction             4
   Number of Grid Cells                72


 Physical Dimensions, Mesh    18

   Length (m)                       0.450
   Width  (m)                       0.900
   Height (m)                       0.600
   Initial Time Step (s)            0.137

 Grid Dimensions, Mesh    19

   Cells in the X Direction             4
   Cells in the Y Direction             5
   Cells in the Z Direction             4
   Number of Grid Cells                80


 Physical Dimensions, Mesh    19

   Length (m)                       0.600
   Width  (m)                       0.750
   Height (m)                       0.600
   Initial Time Step (s)            0.137

 Grid Dimensions, Mesh    20

   Cells in the X Direction             4
   Cells in the Y Direction             6
   Cells in the Z Direction             4
   Number of Grid Cells                96


 Physical Dimensions, Mesh    20

   Length (m)                       0.600
   Width  (m)                       0.900
   Height (m)                       0.600
   Initial Time Step (s)            0.137

 Grid Dimensions, Mesh    21

   Cells in the X Direction             3
   Cells in the Y Direction             6
   Cells in the Z Direction             4
   Number of Grid Cells                72


 Physical Dimensions, Mesh    21

   Length (m)                       0.450
   Width  (m)                       0.900
   Height (m)                       0.600
   Initial Time Step (s)            0.137

 Grid Dimensions, Mesh    22

   Cells in the X Direction             3
   Cells in the Y Direction             6
   Cells in the Z Direction             4
   Number of Grid Cells                72


 Physical Dimensions, Mesh    22

   Length (m)                       0.450
   Width  (m)                       0.900
   Height (m)                       0.600
   Initial Time Step (s)            0.137

 Grid Dimensions, Mesh    23

   Cells in the X Direction             4
   Cells in the Y Direction             5
   Cells in the Z Direction             4
   Number of Grid Cells                80


 Physical Dimensions, Mesh    23

   Length (m)                       0.600
   Width  (m)                       0.750
   Height (m)                       0.600
   Initial Time Step (s)            0.137

 Grid Dimensions, Mesh    24

   Cells in the X Direction             4
   Cells in the Y Direction             6
   Cells in the Z Direction             4
   Number of Grid Cells                96


 Physical Dimensions, Mesh    24

   Length (m)                       0.600
   Width  (m)                       0.900
   Height (m)                       0.600
   Initial Time Step (s)            0.137

 Grid Dimensions, Mesh    25

   Cells in the X Direction             3
   Cells in the Y Direction             6
   Cells in the Z Direction             4
   Number of Grid Cells                72


 Physical Dimensions, Mesh    25

   Length (m)                       0.450
   Width  (m)                       0.900
   Height (m)                       0.600
   Initial Time Step (s)            0.137

 Grid Dimensions, Mesh    26

   Cells in the X Direction             4
   Cells in the Y Direction             6
   Cells in the Z Direction             4
   Number of Grid Cells                96


 Physical Dimensions, Mesh    26

   Length (m)                       0.600
   Width  (m)                       0.900
   Height (m)                       0.600
   Initial Time Step (s)            0.137

 Grid Dimensions, Mesh    27

   Cells in the X Direction             4
   Cells in the Y Direction             6
   Cells in the Z Direction             4
   Number of Grid Cells                96


 Physical Dimensions, Mesh    27

   Length (m)                       0.600
   Width  (m)                       0.900
   Height (m)                       0.600
   Initial Time Step (s)            0.137

 Grid Dimensions, Mesh    28

   Cells in the X Direction             3
   Cells in the Y Direction             6
   Cells in the Z Direction             4
   Number of Grid Cells                72


 Physical Dimensions, Mesh    28

   Length (m)                       0.450
   Width  (m)                       0.900
   Height (m)                       0.600
   Initial Time Step (s)            0.137

 Grid Dimensions, Mesh    29

   Cells in the X Direction             4
   Cells in the Y Direction             6
   Cells in the Z Direction             4
   Number of Grid Cells                96


 Physical Dimensions, Mesh    29

   Length (m)                       0.600
   Width  (m)                       0.900
   Height (m)                       0.600
   Initial Time Step (s)            0.137

 Grid Dimensions, Mesh    30

   Cells in the X Direction             4
   Cells in the Y Direction             6
   Cells in the Z Direction             4
   Number of Grid Cells                96


 Physical Dimensions, Mesh    30

   Length (m)                       0.600
   Width  (m)                       0.900
   Height (m)                       0.600
   Initial Time Step (s)            0.137

Total Number of Grid Cells          2420


 Miscellaneous Parameters

   Simulation Start Time (s)          0.0
   Simulation End Time (s)           15.0
   LES Calculation
   Eddy Viscosity:           Deardorff Model (C_DEARDORFF = 0.10)
   Near-wall Eddy Viscosity: WALE Model (C_WALE = 0.60)
   Turbulent Prandtl Number:         0.50
   Turbulent Schmidt Number:         0.50
   Background Pressure (Pa):    101325.00
   Ambient Temperature (C):         20.00


 Background Stratification

      Z (m)     P_0 (Pa)    TMP_0 (C)
   ------------------------------------
        2.92    101290.71     20.00
        2.78    101292.47     20.00
        2.62    101294.23     20.00
        2.47    101295.99     20.00


 Mass Fraction Transformation Matrix to Convert Species Mixtures (Columns) to Primitive Species (Rows)

                         AIR       REAC_FUE  PRODUCTS
   REAC_FUEL             0.000000  1.000000  0.000000
   NITROGEN              0.762470  0.000000  0.715424
   OXYGEN                0.230997  0.000000  0.000000
   CARBON DIOXIDE        0.000591  0.000000  0.190254
   WATER VAPOR           0.005941  0.000000  0.094321
   CARBON MONOXIDE       0.000000  0.000000  0.000000
   SOOT                  0.000000  0.000000  0.000000
   HYDROGEN              0.000000  0.000000  0.000000
   HYDROGEN CYANIDE      0.000000  0.000000  0.000000


 Primitive Species Information

   REAC_FUEL
   Gas Species
   Molecular Weight (g/mol)           100.20194
   Ambient Density (kg/m^3)            4.166
   Enthalpy of Formation (J/kg)        1.38E+06

   NITROGEN
   Gas Species
   Molecular Weight (g/mol)            28.01340
   Ambient Density (kg/m^3)            1.165
   Enthalpy of Formation (J/kg)        0.00E+00

   OXYGEN
   Gas Species
   Molecular Weight (g/mol)            31.99880
   Ambient Density (kg/m^3)            1.330
   Enthalpy of Formation (J/kg)        0.00E+00

   CARBON DIOXIDE
   Gas Species
   Molecular Weight (g/mol)            44.00950
   Ambient Density (kg/m^3)            1.830
   Enthalpy of Formation (J/kg)       -8.94E+06

   WATER VAPOR
   Gas Species
   Molecular Weight (g/mol)            18.01528
   Ambient Density (kg/m^3)            0.749
   Enthalpy of Formation (J/kg)       -1.34E+07

   CARBON MONOXIDE
   Gas Species
   Molecular Weight (g/mol)            28.01010
   Ambient Density (kg/m^3)            1.164
   Enthalpy of Formation (J/kg)       -3.95E+06

   SOOT
   Gas Species
   Molecular Weight (g/mol)            12.01070
   Ambient Density (kg/m^3)            0.499
   Enthalpy of Formation (J/kg)        0.00E+00

   HYDROGEN
   Gas Species
   Molecular Weight (g/mol)             2.01588
   Ambient Density (kg/m^3)            0.084
   Enthalpy of Formation (J/kg)        0.00E+00

   HYDROGEN CYANIDE
   Gas Species
   Molecular Weight (g/mol)            27.02534
   Ambient Density (kg/m^3)            1.123
   Enthalpy of Formation (J/kg)        4.92E+06


 Tracked (Lumped) Species Information

   AIR
   Molecular Weight (g/mol)            28.75198
   Ambient Density (kg/m^3)            1.195
   Initial Mass Fraction               1.000
   Enthalpy of Formation (J/kg)     -8.50E+04

   Sub Species                    Mass Fraction     Mole Fraction
   NITROGEN                       7.624699E-01      7.825727E-01
   OXYGEN                         2.309974E-01      2.075588E-01
   CARBON DIOXIDE                 5.914650E-04      3.864118E-04
   WATER VAPOR                    5.941209E-03      9.482037E-03
 
     Viscosity (kg/m/s) Ambient,  293 K:  1.80E-05
                                  500 K:  2.61E-05
                                 1000 K:  4.13E-05
                                 1500 K:  5.37E-05
   Therm. Cond. (W/m/K) Ambient,  293 K:  2.56E-02
                                  500 K:  3.81E-02
                                 1000 K:  6.69E-02
                                 1500 K:  9.25E-02
        Enthalpy (J/kg) Ambient,  293 K: -9.01E+04
                                  500 K:  1.22E+05
                                 1000 K:  6.72E+05
                                 1500 K:  1.27E+06
    Spec. Heat (J/kg/K) Ambient,  293 K:  1.02E+03
                                  500 K:  1.04E+03
                                 1000 K:  1.16E+03
                                 1500 K:  1.23E+03
   Diff. Coeff. (m^2/s) Ambient,  293 K:  1.99E-05
                                  500 K:  4.96E-05
                                 1000 K:  1.58E-04
                                 1500 K:  3.09E-04

   REAC_FUEL
   Molecular Weight (g/mol)           100.20194
   Ambient Density (kg/m^3)            4.166
   Initial Mass Fraction               0.000
   Enthalpy of Formation (J/kg)      1.38E+06

   Sub Species                    Mass Fraction     Mole Fraction
   REAC_FUEL                      1.000000E+00      1.000000E+00
 
     Viscosity (kg/m/s) Ambient,  293 K:  3.29E-05
                                  500 K:  4.75E-05
                                 1000 K:  7.47E-05
                                 1500 K:  9.71E-05
   Therm. Cond. (W/m/K) Ambient,  293 K:  1.35E-02
                                  500 K:  1.94E-02
                                 1000 K:  3.05E-02
                                 1500 K:  3.97E-02
        Enthalpy (J/kg) Ambient,  293 K:  1.38E+06
                                  500 K:  1.44E+06
                                 1000 K:  1.59E+06
                                 1500 K:  1.73E+06
    Spec. Heat (J/kg/K) Ambient,  293 K:  2.90E+02
                                  500 K:  2.90E+02
                                 1000 K:  2.90E+02
                                 1500 K:  2.90E+02
   Diff. Coeff. (m^2/s) Ambient,  293 K:  1.59E-05
                                  500 K:  3.95E-05
                                 1000 K:  1.25E-04
                                 1500 K:  2.46E-04

   PRODUCTS
   Molecular Weight (g/mol)            28.49222
   Ambient Density (kg/m^3)            1.184
   Initial Mass Fraction               0.000
   Enthalpy of Formation (J/kg)     -2.97E+06

   Sub Species                    Mass Fraction     Mole Fraction
   NITROGEN                       7.154242E-01      7.276525E-01
   CARBON DIOXIDE                 1.902544E-01      1.231727E-01
   WATER VAPOR                    9.432140E-02      1.491748E-01
   CARBON MONOXIDE                0.000000E+00      0.000000E+00
   SOOT                           0.000000E+00      0.000000E+00
   HYDROGEN CYANIDE               0.000000E+00      0.000000E+00
 
     Viscosity (kg/m/s) Ambient,  293 K:  1.62E-05
                                  500 K:  2.40E-05
                                 1000 K:  3.90E-05
                                 1500 K:  5.15E-05
   Therm. Cond. (W/m/K) Ambient,  293 K:  2.34E-02
                                  500 K:  3.62E-02
                                 1000 K:  6.69E-02
                                 1500 K:  9.57E-02
        Enthalpy (J/kg) Ambient,  293 K: -2.97E+06
                                  500 K: -2.74E+06
                                 1000 K: -2.14E+06
                                 1500 K: -1.47E+06
    Spec. Heat (J/kg/K) Ambient,  293 K:  1.08E+03
                                  500 K:  1.13E+03
                                 1000 K:  1.29E+03
                                 1500 K:  1.39E+03
   Diff. Coeff. (m^2/s) Ambient,  293 K:  1.94E-05
                                  500 K:  4.93E-05
                                 1000 K:  1.59E-04
                                 1500 K:  3.13E-04


 Gas Phase Reaction Information

   Reaction ID:  heptan

   Fuel                                           Heat of Combustion (kJ/kg)
   REAC_FUEL                                                      48181.0023

   Stoichiometry

   Primitive Species Stoich. Coeff.
   Species ID                                                          Molar
   REAC_FUEL                                                       -1.000000
   OXYGEN                                                         -11.000000
   CARBON DIOXIDE                                                   7.000000
   WATER VAPOR                                                      8.000000

   Tracked (Lumped) Species Stoich. Coeff.
   Species ID                                             Molar         Mass
   AIR                                               -52.997025   -15.206987
   REAC_FUEL                                          -1.000000    -1.000000
   PRODUCTS                                           56.997025    16.206987

   Reaction Kinetics

   Arrhenius Parameters
   Pre-exponential:    Infinite
   Activation Energy:  N/A

   ODE Solver:  EXPLICIT EULER
   Extinction Model:  EXTINCTION 2
   Auto-Ignition Temperature (K):       0.0
   Critical Flame Temperature (K):   1700.2


 Material Information

   1 WALL                                                        
     Emissivity                      1.000
     Density (kg/m3)                2280.0
     Specific Heat (kJ/kg/K)      1.04E+00
     Conductivity (W/m/K)          1.80E+00


 Surface Conditions

   0 INERT (DEFAULT)

   1 WALL
     Material List
          1  WALL
     Layer  1
        Thickness   (m):  0.20000
        Density (kg/m3):  2280.00
        WALL, Mass fraction:    1.00
     Total surface density   456.000 kg/m2
     Reaction products considered from the first  0.50 layers.
     Solid Phase Node, Layer, Coordinates(m):
                    0      1       0.0000000
                    1      1       0.0007874
                    2      1       0.0023622
                    3      1       0.0055118
                    4      1       0.0118110
                    5      1       0.0244094
                    6      1       0.0496063
                    7      1       0.1000000
                    8      1       0.1503937
                    9      1       0.1755906
                   10      1       0.1881890
                   11      1       0.1944882
                   12      1       0.1976378
                   13      1       0.1992126
                   14      1       0.2000000
     Exposed Backing

   2 FIRE
     Wall or Vent Temperature (C)   300.0
     REAC_FUEL Mass Flux (kg/s/m2)   2.68E-02

   3 OPEN
     Passive Vent to Atmosphere

   4 MIRROR
     Symmetry Plane

   5 INTERPOLATED

   6 PERIODIC

   7 HVAC

   8 MASSLESS TRACER

   9 DROPLET

  10 EVACUATION_OUTFLOW
     Normal Velocity (m/s)         0.000

  11 MASSLESS TARGET

  12 PERIODIC FLOW ONLY


 Cut-off Density and Temperature

    Minimum Temperature:   -10.0 C
    Maximum Temperature:  2726.8 C
    Minimum Density:  1.195E-01 kg/m3
    Maximum Density:  9.281E+00 kg/m3


 Device Coordinates

     1 Coords:      0.001500      0.825000      0.001500, Make: null, ID: PQ-L-0,0, Quantity: INCIDENT HEAT FLUX
     2 Coords:      0.001500      0.825000      0.500000, Make: null, ID: PQ-L-0,5, Quantity: INCIDENT HEAT FLUX
     3 Coords:      0.001500      0.825000      1.000000, Make: null, ID: PQ-L-1,0, Quantity: INCIDENT HEAT FLUX
     4 Coords:      0.001500      0.825000      1.500000, Make: null, ID: PQ-L-1,5, Quantity: INCIDENT HEAT FLUX
     5 Coords:      0.001500      0.825000      2.000000, Make: null, ID: PQ-L-2,0, Quantity: INCIDENT HEAT FLUX
     6 Coords:      0.001500      0.825000      2.500000, Make: null, ID: PQ-L-2,5, Quantity: INCIDENT HEAT FLUX
     7 Coords:      1.648500      0.825000      0.001500, Make: null, ID: PQ-R-0,0, Quantity: INCIDENT HEAT FLUX
     8 Coords:      1.648500      0.825000      0.500000, Make: null, ID: PQ-R-0,5, Quantity: INCIDENT HEAT FLUX
     9 Coords:      1.648500      0.825000      1.000000, Make: null, ID: PQ-R-1,0, Quantity: INCIDENT HEAT FLUX
    10 Coords:      1.648500      0.825000      1.500000, Make: null, ID: PQ-R-1,5, Quantity: INCIDENT HEAT FLUX
    11 Coords:      1.648500      0.825000      2.000000, Make: null, ID: PQ-R-2,0, Quantity: INCIDENT HEAT FLUX
    12 Coords:      1.648500      0.825000      2.500000, Make: null, ID: PQ-R-2,5, Quantity: INCIDENT HEAT FLUX
    13 Coords:      0.825000      1.648500      0.001500, Make: null, ID: PQ-T-0,0, Quantity: INCIDENT HEAT FLUX
    14 Coords:      0.825000      1.648500      0.500000, Make: null, ID: PQ-T-0,5, Quantity: INCIDENT HEAT FLUX
    15 Coords:      0.825000      1.648500      1.000000, Make: null, ID: PQ-T-1,0, Quantity: INCIDENT HEAT FLUX
    16 Coords:      0.825000      1.648500      1.500000, Make: null, ID: PQ-T-1,5, Quantity: INCIDENT HEAT FLUX
    17 Coords:      0.825000      1.648500      2.000000, Make: null, ID: PQ-T-2,0, Quantity: INCIDENT HEAT FLUX
    18 Coords:      0.825000      1.648500      2.500000, Make: null, ID: PQ-T-2,5, Quantity: INCIDENT HEAT FLUX
    19 Coords:      0.825000      0.001500      0.001500, Make: null, ID: PQ-B-0,0, Quantity: INCIDENT HEAT FLUX
    20 Coords:      0.825000      0.001500      0.500000, Make: null, ID: PQ-B-0,5, Quantity: INCIDENT HEAT FLUX
    21 Coords:      0.825000      0.001500      1.000000, Make: null, ID: PQ-B-1,0, Quantity: INCIDENT HEAT FLUX
    22 Coords:      0.825000      0.001500      1.500000, Make: null, ID: PQ-B-1,5, Quantity: INCIDENT HEAT FLUX
    23 Coords:      0.825000      0.001500      2.000000, Make: null, ID: PQ-B-2,0, Quantity: INCIDENT HEAT FLUX
    24 Coords:      0.825000      0.001500      2.500000, Make: null, ID: PQ-B-2,5, Quantity: INCIDENT HEAT FLUX
    25 Coords:      0.001500      0.825000      0.001500, Make: null, ID: LQ-L-0,0, Quantity: RADIATIVE HEAT FLUX
    26 Coords:      0.001500      0.825000      0.500000, Make: null, ID: LQ-L-0,5, Quantity: RADIATIVE HEAT FLUX
    27 Coords:      0.001500      0.825000      1.000000, Make: null, ID: LQ-L-1,0, Quantity: RADIATIVE HEAT FLUX
    28 Coords:      0.001500      0.825000      1.500000, Make: null, ID: LQ-L-1,5, Quantity: RADIATIVE HEAT FLUX
    29 Coords:      0.001500      0.825000      2.000000, Make: null, ID: LQ-L-2,0, Quantity: RADIATIVE HEAT FLUX
    30 Coords:      0.001500      0.825000      2.500000, Make: null, ID: LQ-L-2,5, Quantity: RADIATIVE HEAT FLUX
    31 Coords:      1.648500      0.825000      0.001500, Make: null, ID: LQ-R-0,0, Quantity: RADIATIVE HEAT FLUX
    32 Coords:      1.648500      0.825000      0.500000, Make: null, ID: LQ-R-0,5, Quantity: RADIATIVE HEAT FLUX
    33 Coords:      1.648500      0.825000      1.000000, Make: null, ID: LQ-R-1,0, Quantity: RADIATIVE HEAT FLUX
    34 Coords:      1.648500      0.825000      1.500000, Make: null, ID: LQ-R-1,5, Quantity: RADIATIVE HEAT FLUX
    35 Coords:      1.648500      0.825000      2.000000, Make: null, ID: LQ-R-2,0, Quantity: RADIATIVE HEAT FLUX
    36 Coords:      1.648500      0.825000      2.500000, Make: null, ID: LQ-R-2,5, Quantity: RADIATIVE HEAT FLUX
    37 Coords:      0.825000      1.648500      0.001500, Make: null, ID: LQ-T-0,0, Quantity: RADIATIVE HEAT FLUX
    38 Coords:      0.825000      1.648500      0.500000, Make: null, ID: LQ-T-0,5, Quantity: RADIATIVE HEAT FLUX
    39 Coords:      0.825000      1.648500      1.000000, Make: null, ID: LQ-T-1,0, Quantity: RADIATIVE HEAT FLUX
    40 Coords:      0.825000      1.648500      1.500000, Make: null, ID: LQ-T-1,5, Quantity: RADIATIVE HEAT FLUX
    41 Coords:      0.825000      1.648500      2.000000, Make: null, ID: LQ-T-2,0, Quantity: RADIATIVE HEAT FLUX
    42 Coords:      0.825000      1.648500      2.500000, Make: null, ID: LQ-T-2,5, Quantity: RADIATIVE HEAT FLUX
    43 Coords:      0.825000      0.001500      0.001500, Make: null, ID: LQ-B-0,0, Quantity: RADIATIVE HEAT FLUX
    44 Coords:      0.825000      0.001500      0.500000, Make: null, ID: LQ-B-0,5, Quantity: RADIATIVE HEAT FLUX
    45 Coords:      0.825000      0.001500      1.000000, Make: null, ID: LQ-B-1,0, Quantity: RADIATIVE HEAT FLUX
    46 Coords:      0.825000      0.001500      1.500000, Make: null, ID: LQ-B-1,5, Quantity: RADIATIVE HEAT FLUX
    47 Coords:      0.825000      0.001500      2.000000, Make: null, ID: LQ-B-2,0, Quantity: RADIATIVE HEAT FLUX
    48 Coords:      0.825000      0.001500      2.500000, Make: null, ID: LQ-B-2,5, Quantity: RADIATIVE HEAT FLUX
    49 Coords:      0.001500      0.825000      0.001500, Make: null, ID: PLQ-L-0,0, Quantity: TOTAL HEAT FLUX
    50 Coords:      0.001500      0.825000      0.500000, Make: null, ID: PLQ-L-0,5, Quantity: TOTAL HEAT FLUX
    51 Coords:      0.001500      0.825000      1.000000, Make: null, ID: PLQ-L-1,0, Quantity: TOTAL HEAT FLUX
    52 Coords:      0.001500      0.825000      1.500000, Make: null, ID: PLQ-L-1,5, Quantity: TOTAL HEAT FLUX
    53 Coords:      0.001500      0.825000      2.000000, Make: null, ID: PLQ-L-2,0, Quantity: TOTAL HEAT FLUX
    54 Coords:      0.001500      0.825000      2.500000, Make: null, ID: PLQ-L-2,5, Quantity: TOTAL HEAT FLUX
    55 Coords:      1.648500      0.825000      0.001500, Make: null, ID: PLQ-R-0,0, Quantity: TOTAL HEAT FLUX
    56 Coords:      1.648500      0.825000      0.500000, Make: null, ID: PLQ-R-0,5, Quantity: TOTAL HEAT FLUX
    57 Coords:      1.648500      0.825000      1.000000, Make: null, ID: PLQ-R-1,0, Quantity: TOTAL HEAT FLUX
    58 Coords:      1.648500      0.825000      1.500000, Make: null, ID: PLQ-R-1,5, Quantity: TOTAL HEAT FLUX
    59 Coords:      1.648500      0.825000      2.000000, Make: null, ID: PLQ-R-2,0, Quantity: TOTAL HEAT FLUX
    60 Coords:      1.648500      0.825000      2.500000, Make: null, ID: PLQ-R-2,5, Quantity: TOTAL HEAT FLUX
    61 Coords:      0.825000      1.648500      0.001500, Make: null, ID: PLQ-T-0,0, Quantity: TOTAL HEAT FLUX
    62 Coords:      0.825000      1.648500      0.500000, Make: null, ID: PLQ-T-0,5, Quantity: TOTAL HEAT FLUX
    63 Coords:      0.825000      1.648500      1.000000, Make: null, ID: PLQ-T-1,0, Quantity: TOTAL HEAT FLUX
    64 Coords:      0.825000      1.648500      1.500000, Make: null, ID: PLQ-T-1,5, Quantity: TOTAL HEAT FLUX
    65 Coords:      0.825000      1.648500      2.000000, Make: null, ID: PLQ-T-2,0, Quantity: TOTAL HEAT FLUX
    66 Coords:      0.825000      1.648500      2.500000, Make: null, ID: PLQ-T-2,02, Quantity: TOTAL HEAT FLUX
    67 Coords:      0.825000      0.001500      0.001500, Make: null, ID: PLQ-B-0,0, Quantity: TOTAL HEAT FLUX
    68 Coords:      0.825000      0.001500      0.500000, Make: null, ID: PLQ-B-0,5, Quantity: TOTAL HEAT FLUX
    69 Coords:      0.825000      0.001500      1.000000, Make: null, ID: PLQ-B-1,0, Quantity: TOTAL HEAT FLUX
    70 Coords:      0.825000      0.001500      1.500000, Make: null, ID: PLQ-B-1,5, Quantity: TOTAL HEAT FLUX
    71 Coords:      0.825000      0.001500      2.000000, Make: null, ID: PLQ-B-2,0, Quantity: TOTAL HEAT FLUX
    72 Coords:      0.825000      0.001500      2.500000, Make: null, ID: PLQ-B-2,5, Quantity: TOTAL HEAT FLUX


 Slice File Information, Mesh     1

   Sampling Interval (s)             1.000

   1 Nodes:   1   1   0   5   0   4, Quantity: TEMPERATURE


 Slice File Information, Mesh     4

   Sampling Interval (s)             1.000

   1 Nodes:   0   4   0   0   0   4, Quantity: TEMPERATURE


 Boundary File Information

   Sampling Interval (s)             2.000

   1 Quantity: RADIATIVE HEAT FLUX
   2 Quantity: INCIDENT HEAT FLUX
   3 Quantity: TOTAL HEAT FLUX


 Radiation Model Information

   Number of control angles  104
   Time step increment         3
   Angle increment             5
   Theta band N_phi   Solid angle
     1:        4     0.120
     2:       12     0.114
     3:       16     0.127
     4:       20     0.120
     5:       20     0.120
     6:       16     0.127
     7:       12     0.114
     8:        4     0.120
   Using gray gas absorption.
   Mean beam length  0.100 m
 
 

 Run Time Diagnostics

       Time Step       1   January 12, 2023  17:07:14
       Step Size:    0.137E+00 s, Total Time:       0.14 s
       Pressure Iterations:      1
       Maximum Velocity Error:  0.14E-02 on Mesh   4 at (   5   2   1)
       Maximum Pressure Error:  0.93E-06 on Mesh  22 at (   2   4   4)
       ---------------------------------------------------------------
       Mesh    1
       Max CFL number:  0.14E-01 at (   3,   4,   2)
       Max divergence:  0.80E-06 at (   2,   3,   3)
       Min divergence: -0.66E-06 at (   3,   4,   2)
       Max VN number:   0.86E-02 at (   2,   3,   3)
       Mesh    2
       Max CFL number:  0.17E-01 at (   3,   1,   3)
       Max divergence:  0.65E-06 at (   3,   5,   3)
       Min divergence: -0.70E-06 at (   3,   2,   2)
       Max VN number:   0.10E-01 at (   3,   2,   2)
       Mesh    3
       Max CFL number:  0.18E-01 at (   1,   3,   2)
       Max divergence:  0.40E-06 at (   3,   3,   1)
       Min divergence: -0.93E-06 at (   1,   4,   2)
       Max VN number:   0.88E-02 at (   1,   3,   2)
       Mesh    4
       Max CFL number:  0.18E-01 at (   2,   4,   2)
       Max divergence:  0.49E-06 at (   3,   4,   1)
       Min divergence: -0.59E-06 at (   4,   2,   2)
       Max VN number:   0.15E-01 at (   3,   2,   1)
       Mesh    5
       Max CFL number:  0.15E-01 at (   1,   2,   3)
       Max divergence:  0.47E-06 at (   2,   5,   3)
       Min divergence: -0.70E-06 at (   1,   4,   3)
       Max VN number:   0.10E-01 at (   2,   3,   3)
       Mesh    6
       Max CFL number:  0.16E-01 at (   4,   3,   2)
       Max divergence:  0.67E-06 at (   3,   2,   2)
       Min divergence: -0.84E-06 at (   3,   4,   3)
       Max VN number:   0.87E-02 at (   3,   4,   3)
       Mesh    7
       Max CFL number:  0.15E-01 at (   3,   4,   3)
       Max divergence:  0.13E-06 at (   2,   2,   2)
       Min divergence: -0.11E-05 at (   2,   5,   1)
       Max VN number:   0.92E-02 at (   3,   3,   2)
       Mesh    8
       Max CFL number:  0.20E-01 at (   3,   3,   4)
       Max divergence:  0.43E-06 at (   2,   5,   2)
       Min divergence: -0.12E-05 at (   3,   3,   3)
       Max VN number:   0.96E-02 at (   3,   2,   2)
       Mesh    9
       Max CFL number:  0.21E-01 at (   2,   2,   3)
       Max divergence: -0.91E-08 at (   3,   4,   3)
       Min divergence: -0.16E-05 at (   2,   2,   2)
       Max VN number:   0.12E-01 at (   2,   1,   2)
       Mesh   10
       Max CFL number:  0.18E-01 at (   3,   4,   2)
       Max divergence:  0.46E-06 at (   3,   5,   2)
       Min divergence: -0.65E-06 at (   2,   2,   1)
       Max VN number:   0.88E-02 at (   4,   3,   2)
       Mesh   11
       Max CFL number:  0.17E-01 at (   3,   3,   2)
       Max divergence:  0.34E-06 at (   2,   3,   2)
       Min divergence: -0.86E-06 at (   3,   3,   3)
       Max VN number:   0.88E-02 at (   3,   4,   2)
       Mesh   12
       Max CFL number:  0.16E-01 at (   2,   3,   1)
       Max divergence:  0.72E-06 at (   2,   3,   2)
       Min divergence: -0.13E-05 at (   3,   3,   2)
       Max VN number:   0.12E-01 at (   2,   3,   2)
       Mesh   13
       Max CFL number:  0.14E-01 at (   2,   3,   1)
       Max divergence:  0.13E-06 at (   1,   4,   3)
       Min divergence: -0.11E-05 at (   3,   4,   3)
       Max VN number:   0.90E-02 at (   1,   4,   3)
       Mesh   14
       Max CFL number:  0.19E-01 at (   2,   3,   3)
       Max divergence:  0.41E-07 at (   3,   3,   2)
       Min divergence: -0.12E-05 at (   4,   5,   3)
       Max VN number:   0.95E-02 at (   2,   3,   3)
       Mesh   15
       Max CFL number:  0.16E-01 at (   2,   2,   2)
       Max divergence:  0.79E-06 at (   2,   3,   3)
       Min divergence: -0.67E-06 at (   2,   4,   2)
       Max VN number:   0.91E-02 at (   2,   3,   3)
       Mesh   16
       Max CFL number:  0.20E-01 at (   3,   5,   3)
       Max divergence:  0.49E-06 at (   3,   5,   2)
       Min divergence: -0.90E-06 at (   4,   1,   3)
       Max VN number:   0.85E-02 at (   2,   5,   3)
       Mesh   17
       Max CFL number:  0.16E-01 at (   1,   4,   3)
       Max divergence:  0.88E-06 at (   2,   4,   2)
       Min divergence: -0.86E-06 at (   3,   4,   2)
       Max VN number:   0.11E-01 at (   2,   4,   2)
       Mesh   18
       Max CFL number:  0.14E-01 at (   2,   3,   3)
       Max divergence:  0.33E-04 at (   2,   2,   3)
       Min divergence: -0.21E-02 at (   2,   1,   2)
       Max VN number:   0.76E-02 at (   1,   4,   2)
       Mesh   19
       Max CFL number:  0.21E-01 at (   3,   2,   3)
       Max divergence:  0.25E-06 at (   1,   1,   2)
       Min divergence: -0.94E-06 at (   3,   5,   2)
       Max VN number:   0.85E-02 at (   3,   2,   4)
       Mesh   20
       Max CFL number:  0.18E-01 at (   3,   4,   3)
       Max divergence:  0.60E-06 at (   3,   4,   3)
       Min divergence: -0.48E-06 at (   3,   6,   3)
       Max VN number:   0.96E-02 at (   3,   4,   3)
       Mesh   21
       Max CFL number:  0.16E-01 at (   2,   2,   3)
       Max divergence:  0.23E-06 at (   1,   5,   2)
       Min divergence: -0.12E-05 at (   1,   2,   2)
       Max VN number:   0.72E-02 at (   2,   3,   3)
       Mesh   22
       Max CFL number:  0.15E-01 at (   2,   4,   1)
       Max divergence:  0.61E-06 at (   1,   2,   2)
       Min divergence: -0.62E-06 at (   3,   6,   2)
       Max VN number:   0.95E-02 at (   2,   4,   4)
       Mesh   23
       Max CFL number:  0.22E-01 at (   2,   3,   3)
       Max divergence:  0.54E-06 at (   2,   4,   3)
       Min divergence: -0.11E-05 at (   2,   3,   2)
       Max VN number:   0.10E-01 at (   2,   3,   2)
       Mesh   24
       Max CFL number:  0.15E-01 at (   3,   5,   2)
       Max divergence:  0.42E-06 at (   2,   3,   3)
       Min divergence: -0.91E-06 at (   2,   2,   3)
       Max VN number:   0.85E-02 at (   2,   2,   3)
       Mesh   25
       Max CFL number:  0.16E-01 at (   2,   4,   3)
       Max divergence:  0.22E-06 at (   2,   4,   3)
       Min divergence: -0.14E-05 at (   2,   1,   2)
       Max VN number:   0.91E-02 at (   2,   4,   3)
       Mesh   26
       Max CFL number:  0.16E-01 at (   3,   4,   1)
       Max divergence:  0.39E-06 at (   4,   4,   3)
       Min divergence: -0.79E-06 at (   3,   2,   2)
       Max VN number:   0.87E-02 at (   2,   5,   2)
       Mesh   27
       Max CFL number:  0.14E-01 at (   3,   2,   2)
       Max divergence:  0.58E-06 at (   1,   3,   3)
       Min divergence: -0.51E-06 at (   2,   3,   1)
       Max VN number:   0.65E-02 at (   1,   3,   3)
       Mesh   28
       Max CFL number:  0.17E-01 at (   3,   2,   3)
       Max divergence:  0.35E-06 at (   1,   4,   2)
       Min divergence: -0.72E-06 at (   1,   2,   2)
       Max VN number:   0.10E-01 at (   2,   4,   3)
       Mesh   29
       Max CFL number:  0.17E-01 at (   2,   5,   3)
       Max divergence:  0.25E-06 at (   4,   5,   4)
       Min divergence: -0.99E-06 at (   2,   2,   2)
       Max VN number:   0.11E-01 at (   2,   2,   2)
       Mesh   30
       Max CFL number:  0.16E-01 at (   1,   2,   3)
       Max divergence:  0.61E-06 at (   1,   2,   2)
       Min divergence: -0.86E-06 at (   1,   3,   3)
       Max VN number:   0.91E-02 at (   1,   2,   2)
 
       Time Step       2   January 12, 2023  17:07:14
       Step Size:    0.137E+00 s, Total Time:       0.27 s
       Pressure Iterations:      2
       Maximum Velocity Error:  0.39E-01 on Mesh   2 at (   1   6   2)
       Maximum Pressure Error:  0.23E-01 on Mesh  18 at (   2   2   2)
       ---------------------------------------------------------------
       Mesh    1
       Max CFL number:  0.14E-01 at (   3,   4,   2)
       Max divergence:  0.78E-06 at (   2,   3,   3)
       Min divergence: -0.68E-06 at (   3,   4,   2)
       Max VN number:   0.86E-02 at (   2,   3,   3)
       Mesh    2
       Max CFL number:  0.17E-01 at (   3,   1,   3)
       Max divergence:  0.65E-06 at (   3,   5,   3)
       Min divergence: -0.70E-06 at (   3,   2,   2)
       Max VN number:   0.10E-01 at (   3,   2,   2)
       Mesh    3
       Max CFL number:  0.18E-01 at (   1,   3,   2)
       Max divergence:  0.40E-06 at (   3,   3,   1)
       Min divergence: -0.93E-06 at (   1,   4,   2)
       Max VN number:   0.88E-02 at (   1,   3,   2)
       Mesh    4
       Max CFL number:  0.18E-01 at (   2,   4,   2)
       Max divergence:  0.49E-06 at (   3,   4,   1)
       Min divergence: -0.60E-06 at (   4,   2,   2)
       Max VN number:   0.15E-01 at (   3,   2,   1)
       Mesh    5
       Max CFL number:  0.15E-01 at (   1,   2,   3)
       Max divergence:  0.46E-06 at (   2,   5,   3)
       Min divergence: -0.72E-06 at (   1,   4,   3)
       Max VN number:   0.10E-01 at (   2,   3,   3)
       Mesh    6
       Max CFL number:  0.16E-01 at (   4,   3,   2)
       Max divergence:  0.65E-06 at (   3,   2,   2)
       Min divergence: -0.86E-06 at (   3,   4,   3)
       Max VN number:   0.87E-02 at (   3,   4,   3)
       Mesh    7
       Max CFL number:  0.15E-01 at (   3,   4,   3)
       Max divergence:  0.12E-06 at (   2,   2,   2)
       Min divergence: -0.11E-05 at (   2,   5,   1)
       Max VN number:   0.92E-02 at (   3,   3,   2)
       Mesh    8
       Max CFL number:  0.20E-01 at (   3,   3,   4)
       Max divergence:  0.42E-06 at (   2,   5,   2)
       Min divergence: -0.12E-05 at (   3,   3,   3)
       Max VN number:   0.96E-02 at (   3,   2,   2)
       Mesh    9
       Max CFL number:  0.21E-01 at (   2,   2,   3)
       Max divergence: -0.18E-07 at (   3,   4,   3)
       Min divergence: -0.16E-05 at (   2,   2,   2)
       Max VN number:   0.12E-01 at (   2,   1,   2)
       Mesh   10
       Max CFL number:  0.18E-01 at (   3,   4,   2)
       Max divergence:  0.45E-06 at (   3,   5,   2)
       Min divergence: -0.66E-06 at (   2,   2,   1)
       Max VN number:   0.87E-02 at (   4,   3,   2)
       Mesh   11
       Max CFL number:  0.17E-01 at (   3,   3,   2)
       Max divergence:  0.33E-06 at (   2,   3,   2)
       Min divergence: -0.88E-06 at (   3,   3,   3)
       Max VN number:   0.88E-02 at (   3,   4,   2)
       Mesh   12
       Max CFL number:  0.16E-01 at (   2,   3,   1)
       Max divergence:  0.71E-06 at (   2,   3,   2)
       Min divergence: -0.13E-05 at (   3,   3,   2)
       Max VN number:   0.12E-01 at (   2,   3,   2)
       Mesh   13
       Max CFL number:  0.14E-01 at (   2,   3,   1)
       Max divergence:  0.13E-06 at (   1,   4,   3)
       Min divergence: -0.11E-05 at (   3,   4,   3)
       Max VN number:   0.90E-02 at (   1,   4,   3)
       Mesh   14
       Max CFL number:  0.19E-01 at (   2,   3,   3)
       Max divergence:  0.30E-07 at (   3,   3,   2)
       Min divergence: -0.12E-05 at (   4,   5,   3)
       Max VN number:   0.94E-02 at (   2,   3,   3)
       Mesh   15
       Max CFL number:  0.16E-01 at (   2,   2,   2)
       Max divergence:  0.77E-06 at (   2,   3,   3)
       Min divergence: -0.69E-06 at (   2,   4,   2)
       Max VN number:   0.90E-02 at (   2,   3,   3)
       Mesh   16
       Max CFL number:  0.20E-01 at (   3,   5,   3)
       Max divergence:  0.47E-06 at (   3,   5,   2)
       Min divergence: -0.91E-06 at (   4,   1,   3)
       Max VN number:   0.84E-02 at (   2,   5,   3)
       Mesh   17
       Max CFL number:  0.16E-01 at (   1,   4,   3)
       Max divergence:  0.81E-03 at (   3,   5,   2)
       Min divergence: -0.86E-06 at (   3,   4,   2)
       Max VN number:   0.11E-01 at (   2,   4,   2)
       Mesh   18
       Max CFL number:  0.14E-01 at (   2,   3,   3)
       Max divergence:  0.19E+01 at (   3,   2,   2)
       Min divergence: -0.21E-06 at (   1,   3,   1)
       Max VN number:   0.77E-02 at (   1,   4,   2)
       Mesh   19
       Max CFL number:  0.21E-01 at (   3,   2,   3)
       Max divergence:  0.25E-06 at (   1,   1,   2)
       Min divergence: -0.95E-06 at (   3,   5,   2)
       Max VN number:   0.84E-02 at (   3,   2,   4)
       Mesh   20
       Max CFL number:  0.18E-01 at (   3,   4,   3)
       Max divergence:  0.59E-06 at (   3,   4,   3)
       Min divergence: -0.49E-06 at (   3,   6,   3)
       Max VN number:   0.96E-02 at (   3,   4,   3)
       Mesh   21
       Max CFL number:  0.16E-01 at (   2,   2,   3)
       Max divergence:  0.22E-06 at (   1,   5,   2)
       Min divergence: -0.12E-05 at (   1,   2,   2)
       Max VN number:   0.72E-02 at (   2,   3,   3)
       Mesh   22
       Max CFL number:  0.15E-01 at (   2,   4,   1)
       Max divergence:  0.59E-06 at (   1,   2,   2)
       Min divergence: -0.64E-06 at (   3,   6,   2)
       Max VN number:   0.95E-02 at (   2,   4,   4)
       Mesh   23
       Max CFL number:  0.22E-01 at (   2,   3,   3)
       Max divergence:  0.54E-06 at (   2,   4,   3)
       Min divergence: -0.11E-05 at (   2,   3,   2)
       Max VN number:   0.10E-01 at (   2,   3,   2)
       Mesh   24
       Max CFL number:  0.15E-01 at (   3,   5,   2)
       Max divergence:  0.73E-03 at (   1,   1,   2)
       Min divergence: -0.91E-06 at (   2,   2,   3)
       Max VN number:   0.84E-02 at (   2,   2,   3)
       Mesh   25
       Max CFL number:  0.16E-01 at (   2,   4,   3)
       Max divergence:  0.21E-06 at (   2,   4,   3)
       Min divergence: -0.14E-05 at (   2,   1,   2)
       Max VN number:   0.90E-02 at (   2,   4,   3)
       Mesh   26
       Max CFL number:  0.16E-01 at (   3,   4,   1)
       Max divergence:  0.39E-06 at (   4,   4,   3)
       Min divergence: -0.79E-06 at (   3,   2,   2)
       Max VN number:   0.86E-02 at (   2,   5,   2)
       Mesh   27
       Max CFL number:  0.14E-01 at (   3,   2,   2)
       Max divergence:  0.57E-06 at (   1,   3,   3)
       Min divergence: -0.53E-06 at (   2,   3,   1)
       Max VN number:   0.65E-02 at (   1,   3,   3)
       Mesh   28
       Max CFL number:  0.17E-01 at (   3,   2,   3)
       Max divergence:  0.34E-06 at (   1,   4,   2)
       Min divergence: -0.73E-06 at (   1,   2,   2)
       Max VN number:   0.10E-01 at (   2,   4,   3)
       Mesh   29
       Max CFL number:  0.17E-01 at (   2,   5,   3)
       Max divergence:  0.24E-06 at (   4,   5,   4)
       Min divergence: -0.10E-05 at (   2,   2,   2)
       Max VN number:   0.11E-01 at (   2,   2,   2)
       Mesh   30
       Max CFL number:  0.16E-01 at (   1,   2,   3)
       Max divergence:  0.59E-06 at (   1,   2,   2)
       Min divergence: -0.87E-06 at (   1,   3,   3)
       Max VN number:   0.91E-02 at (   1,   2,   2)
 
       Time Step       3   January 12, 2023  17:07:14
       Step Size:    0.137E+00 s, Total Time:       0.41 s
       Pressure Iterations:      2
       Maximum Velocity Error:  0.23E-01 on Mesh  18 at (   3   1   1)
       Maximum Pressure Error:  0.49E+01 on Mesh  18 at (   2   2   2)
       ---------------------------------------------------------------
       Mesh    1
       Max CFL number:  0.14E-01 at (   3,   4,   2)
       Max divergence:  0.76E-06 at (   2,   3,   3)
       Min divergence: -0.71E-06 at (   3,   4,   2)
       Max VN number:   0.85E-02 at (   2,   3,   3)
       Mesh    2
       Max CFL number:  0.17E-01 at (   3,   1,   3)
       Max divergence:  0.14E-02 at (   1,   5,   2)
       Min divergence: -0.68E-06 at (   3,   2,   2)
       Max VN number:   0.10E-01 at (   3,   2,   2)
       Mesh    3
       Max CFL number:  0.18E-01 at (   1,   3,   2)
       Max divergence:  0.45E-06 at (   3,   3,   1)
       Min divergence: -0.66E-06 at (   1,   4,   2)
       Max VN number:   0.87E-02 at (   1,   3,   2)
       Mesh    4
       Max CFL number:  0.21E-01 at (   4,   2,   2)
       Max divergence:  0.28E-03 at (   4,   1,   2)
       Min divergence: -0.49E-06 at (   1,   4,   2)
       Max VN number:   0.76E-02 at (   3,   1,   3)
       Mesh    5
       Max CFL number:  0.15E-01 at (   1,   2,   3)
       Max divergence:  0.33E-06 at (   2,   5,   3)
       Min divergence: -0.82E-06 at (   1,   4,   3)
       Max VN number:   0.10E-01 at (   2,   3,   3)
       Mesh    6
       Max CFL number:  0.16E-01 at (   4,   3,   2)
       Max divergence:  0.56E-06 at (   3,   2,   2)
       Min divergence: -0.88E-06 at (   3,   4,   3)
       Max VN number:   0.87E-02 at (   3,   4,   3)
       Mesh    7
       Max CFL number:  0.15E-01 at (   3,   4,   3)
       Max divergence:  0.29E-06 at (   2,   2,   2)
       Min divergence: -0.97E-06 at (   2,   5,   1)
       Max VN number:   0.91E-02 at (   3,   3,   2)
       Mesh    8
       Max CFL number:  0.19E-01 at (   3,   3,   4)
       Max divergence:  0.57E-06 at (   2,   5,   2)
       Min divergence: -0.11E-05 at (   3,   3,   3)
       Max VN number:   0.96E-02 at (   3,   2,   2)
       Mesh    9
       Max CFL number:  0.21E-01 at (   2,   2,   3)
       Max divergence:  0.22E-06 at (   3,   4,   3)
       Min divergence: -0.14E-05 at (   2,   2,   2)
       Max VN number:   0.12E-01 at (   2,   1,   2)
       Mesh   10
       Max CFL number:  0.17E-01 at (   3,   4,   2)
       Max divergence:  0.38E-06 at (   4,   2,   3)
       Min divergence: -0.66E-06 at (   4,   5,   2)
       Max VN number:   0.87E-02 at (   4,   3,   2)
       Mesh   11
       Max CFL number:  0.17E-01 at (   3,   3,   2)
       Max divergence:  0.21E-06 at (   2,   3,   2)
       Min divergence: -0.98E-06 at (   3,   3,   3)
       Max VN number:   0.88E-02 at (   3,   4,   2)
       Mesh   12
       Max CFL number:  0.16E-01 at (   2,   3,   1)
       Max divergence:  0.67E-06 at (   2,   3,   2)
       Min divergence: -0.13E-05 at (   3,   3,   2)
       Max VN number:   0.12E-01 at (   2,   3,   2)
       Mesh   13
       Max CFL number:  0.14E-01 at (   2,   3,   1)
       Max divergence:  0.44E-06 at (   1,   4,   3)
       Min divergence: -0.11E-05 at (   3,   4,   3)
       Max VN number:   0.90E-02 at (   1,   4,   3)
       Mesh   14
       Max CFL number:  0.19E-01 at (   2,   3,   3)
       Max divergence:  0.26E-06 at (   3,   3,   2)
       Min divergence: -0.98E-06 at (   2,   3,   3)
       Max VN number:   0.94E-02 at (   2,   3,   3)
       Mesh   15
       Max CFL number:  0.16E-01 at (   2,   2,   2)
       Max divergence:  0.75E-06 at (   2,   3,   3)
       Min divergence: -0.75E-06 at (   4,   1,   3)
       Max VN number:   0.90E-02 at (   2,   3,   3)
       Mesh   16
       Max CFL number:  0.20E-01 at (   3,   5,   3)
       Max divergence:  0.58E-06 at (   4,   2,   3)
       Min divergence: -0.80E-06 at (   1,   3,   1)
       Max VN number:   0.84E-02 at (   2,   5,   3)
       Mesh   17
       Max CFL number:  0.77E-01 at (   3,   5,   2)
       Max divergence:  0.75E-01 at (   2,   5,   2)
       Min divergence: -0.65E-06 at (   3,   4,   1)
       Max VN number:   0.31E-01 at (   2,   5,   2)
       Mesh   18
       Max CFL number:  0.39E+00 at (   3,   1,   2)
       Max divergence:  0.18E+01 at (   2,   2,   2)
       Min divergence:  0.16E-05 at (   3,   6,   1)
       Max VN number:   0.57E-01 at (   3,   2,   2)
       Mesh   19
       Max CFL number:  0.20E-01 at (   3,   2,   3)
       Max divergence:  0.27E-06 at (   1,   1,   2)
       Min divergence: -0.89E-06 at (   3,   2,   4)
       Max VN number:   0.84E-02 at (   3,   2,   4)
       Mesh   20
       Max CFL number:  0.18E-01 at (   3,   4,   3)
       Max divergence:  0.53E-06 at (   3,   4,   3)
       Min divergence: -0.56E-06 at (   4,   3,   3)
       Max VN number:   0.96E-02 at (   3,   4,   3)
       Mesh   21
       Max CFL number:  0.16E-01 at (   2,   2,   3)
       Max divergence:  0.27E-05 at (   3,   1,   1)
       Min divergence: -0.50E-06 at (   3,   5,   3)
       Max VN number:   0.77E-02 at (   1,   2,   1)
       Mesh   22
       Max CFL number:  0.15E-01 at (   2,   4,   1)
       Max divergence:  0.57E-06 at (   1,   2,   2)
       Min divergence: -0.65E-06 at (   3,   6,   2)
       Max VN number:   0.95E-02 at (   2,   4,   4)
       Mesh   23
       Max CFL number:  0.22E-01 at (   2,   3,   3)
       Max divergence:  0.58E-06 at (   2,   4,   3)
       Min divergence: -0.11E-05 at (   2,   3,   2)
       Max VN number:   0.10E-01 at (   2,   3,   2)
       Mesh   24
       Max CFL number:  0.78E-01 at (   1,   1,   2)
       Max divergence:  0.74E-01 at (   1,   2,   2)
       Min divergence: -0.51E-06 at (   1,   5,   1)
       Max VN number:   0.27E-01 at (   1,   2,   2)
       Mesh   25
       Max CFL number:  0.15E-01 at (   2,   4,   3)
       Max divergence:  0.28E-06 at (   2,   4,   3)
       Min divergence: -0.13E-05 at (   2,   1,   2)
       Max VN number:   0.90E-02 at (   2,   4,   3)
       Mesh   26
       Max CFL number:  0.15E-01 at (   3,   4,   1)
       Max divergence:  0.42E-06 at (   4,   4,   3)
       Min divergence: -0.75E-06 at (   3,   2,   2)
       Max VN number:   0.86E-02 at (   2,   5,   2)
       Mesh   27
       Max CFL number:  0.14E-01 at (   3,   2,   2)
       Max divergence:  0.56E-06 at (   1,   3,   3)
       Min divergence: -0.58E-06 at (   2,   3,   1)
       Max VN number:   0.65E-02 at (   1,   3,   3)
       Mesh   28
       Max CFL number:  0.17E-01 at (   3,   2,   3)
       Max divergence:  0.24E-06 at (   3,   4,   2)
       Min divergence: -0.94E-06 at (   1,   2,   2)
       Max VN number:   0.10E-01 at (   2,   4,   3)
       Mesh   29
       Max CFL number:  0.17E-01 at (   2,   5,   3)
       Max divergence:  0.30E-06 at (   2,   5,   2)
       Min divergence: -0.81E-06 at (   2,   2,   2)
       Max VN number:   0.10E-01 at (   2,   2,   2)
       Mesh   30
       Max CFL number:  0.16E-01 at (   1,   2,   3)
       Max divergence:  0.41E-06 at (   1,   2,   2)
       Min divergence: -0.10E-05 at (   1,   3,   3)
       Max VN number:   0.91E-02 at (   1,   2,   2)
 
       Time Step       4   January 12, 2023  17:07:14
       Step Size:    0.137E+00 s, Total Time:       0.55 s
       Pressure Iterations:      4
       Maximum Velocity Error:  0.45E-01 on Mesh   2 at (   1   6   2)
       Maximum Pressure Error:  0.23E+02 on Mesh  18 at (   2   2   2)
       ---------------------------------------------------------------
       Mesh    1
       Max CFL number:  0.14E-01 at (   3,   4,   2)
       Max divergence:  0.76E-06 at (   2,   3,   3)
       Min divergence: -0.71E-06 at (   3,   4,   2)
       Max VN number:   0.85E-02 at (   2,   3,   3)
       Mesh    2
       Max CFL number:  0.26E-01 at (   1,   5,   2)
       Max divergence:  0.51E-02 at (   1,   5,   2)
       Min divergence: -0.66E-06 at (   3,   2,   2)
       Max VN number:   0.10E-01 at (   3,   2,   2)
       Mesh    3
       Max CFL number:  0.17E-01 at (   1,   3,   2)
       Max divergence:  0.47E-06 at (   3,   3,   1)
       Min divergence: -0.60E-06 at (   4,   4,   3)
       Max VN number:   0.87E-02 at (   1,   3,   2)
       Mesh    4
       Max CFL number:  0.27E-01 at (   4,   1,   3)
       Max divergence:  0.65E-03 at (   4,   2,   2)
       Min divergence: -0.49E-06 at (   1,   4,   2)
       Max VN number:   0.76E-02 at (   3,   1,   3)
       Mesh    5
       Max CFL number:  0.15E-01 at (   1,   2,   3)
       Max divergence:  0.33E-06 at (   2,   5,   3)
       Min divergence: -0.82E-06 at (   1,   4,   3)
       Max VN number:   0.10E-01 at (   2,   3,   3)
       Mesh    6
       Max CFL number:  0.16E-01 at (   4,   3,   2)
       Max divergence:  0.56E-06 at (   3,   2,   2)
       Min divergence: -0.88E-06 at (   3,   4,   3)
       Max VN number:   0.87E-02 at (   3,   4,   3)
       Mesh    7
       Max CFL number:  0.15E-01 at (   3,   4,   3)
       Max divergence:  0.28E-06 at (   2,   2,   2)
       Min divergence: -0.97E-06 at (   2,   5,   1)
       Max VN number:   0.91E-02 at (   3,   3,   2)
       Mesh    8
       Max CFL number:  0.19E-01 at (   3,   3,   4)
       Max divergence:  0.59E-06 at (   2,   5,   2)
       Min divergence: -0.10E-05 at (   3,   3,   3)
       Max VN number:   0.97E-02 at (   3,   2,   2)
       Mesh    9
       Max CFL number:  0.21E-01 at (   2,   2,   3)
       Max divergence:  0.22E-06 at (   3,   4,   3)
       Min divergence: -0.14E-05 at (   2,   2,   2)
       Max VN number:   0.12E-01 at (   2,   1,   2)
       Mesh   10
       Max CFL number:  0.17E-01 at (   3,   4,   2)
       Max divergence:  0.38E-06 at (   4,   2,   3)
       Min divergence: -0.66E-06 at (   4,   5,   2)
       Max VN number:   0.87E-02 at (   4,   3,   2)
       Mesh   11
       Max CFL number:  0.17E-01 at (   3,   3,   2)
       Max divergence:  0.21E-06 at (   2,   3,   2)
       Min divergence: -0.98E-06 at (   3,   3,   3)
       Max VN number:   0.87E-02 at (   3,   4,   2)
       Mesh   12
       Max CFL number:  0.16E-01 at (   2,   3,   1)
       Max divergence:  0.67E-06 at (   2,   3,   2)
       Min divergence: -0.13E-05 at (   3,   3,   2)
       Max VN number:   0.11E-01 at (   2,   3,   2)
       Mesh   13
       Max CFL number:  0.14E-01 at (   2,   3,   1)
       Max divergence:  0.50E-06 at (   1,   4,   3)
       Min divergence: -0.99E-06 at (   3,   4,   3)
       Max VN number:   0.89E-02 at (   1,   4,   3)
       Mesh   14
       Max CFL number:  0.19E-01 at (   2,   3,   3)
       Max divergence:  0.26E-06 at (   3,   3,   2)
       Min divergence: -0.98E-06 at (   2,   3,   3)
       Max VN number:   0.93E-02 at (   2,   3,   3)
       Mesh   15
       Max CFL number:  0.16E-01 at (   2,   2,   2)
       Max divergence:  0.75E-06 at (   2,   3,   3)
       Min divergence: -0.75E-06 at (   4,   1,   3)
       Max VN number:   0.90E-02 at (   2,   3,   3)
       Mesh   16
       Max CFL number:  0.20E-01 at (   3,   5,   3)
       Max divergence:  0.58E-06 at (   4,   2,   3)
       Min divergence: -0.80E-06 at (   1,   3,   1)
       Max VN number:   0.84E-02 at (   2,   5,   3)
       Mesh   17
       Max CFL number:  0.83E-01 at (   3,   5,   3)
       Max divergence:  0.17E+00 at (   3,   5,   2)
       Min divergence: -0.54E-06 at (   1,   1,   2)
       Max VN number:   0.30E-01 at (   2,   5,   2)
       Mesh   18
       Max CFL number:  0.44E+00 at (   3,   2,   2)
       Max divergence:  0.81E+01 at (   3,   1,   2)
       Min divergence:  0.16E-05 at (   3,   6,   1)
       Max VN number:   0.54E-01 at (   2,   2,   2)
       Mesh   19
       Max CFL number:  0.20E-01 at (   3,   2,   3)
       Max divergence:  0.27E-06 at (   1,   1,   2)
       Min divergence: -0.88E-06 at (   3,   2,   4)
       Max VN number:   0.84E-02 at (   3,   2,   4)
       Mesh   20
       Max CFL number:  0.18E-01 at (   3,   4,   3)
       Max divergence:  0.53E-06 at (   3,   4,   3)
       Min divergence: -0.56E-06 at (   4,   3,   3)
       Max VN number:   0.95E-02 at (   3,   4,   3)
       Mesh   21
       Max CFL number:  0.30E-01 at (   3,   2,   1)
       Max divergence:  0.47E-05 at (   3,   1,   1)
       Min divergence: -0.42E-06 at (   3,   5,   3)
       Max VN number:   0.76E-02 at (   1,   2,   1)
       Mesh   22
       Max CFL number:  0.15E-01 at (   2,   4,   1)
       Max divergence:  0.57E-06 at (   1,   2,   2)
       Min divergence: -0.65E-06 at (   3,   6,   2)
       Max VN number:   0.95E-02 at (   2,   4,   4)
       Mesh   23
       Max CFL number:  0.21E-01 at (   2,   3,   3)
       Max divergence:  0.68E-05 at (   4,   5,   2)
       Min divergence: -0.10E-05 at (   2,   3,   2)
       Max VN number:   0.10E-01 at (   2,   3,   2)
       Mesh   24
       Max CFL number:  0.82E-01 at (   1,   2,   3)
       Max divergence:  0.17E+00 at (   1,   1,   2)
       Min divergence: -0.51E-06 at (   1,   5,   1)
       Max VN number:   0.26E-01 at (   1,   1,   2)
       Mesh   25
       Max CFL number:  0.15E-01 at (   2,   4,   3)
       Max divergence:  0.28E-06 at (   2,   4,   3)
       Min divergence: -0.13E-05 at (   2,   1,   2)
       Max VN number:   0.89E-02 at (   2,   4,   3)
       Mesh   26
       Max CFL number:  0.16E-01 at (   3,   3,   1)
       Max divergence:  0.43E-06 at (   4,   4,   3)
       Min divergence: -0.65E-06 at (   3,   2,   2)
       Max VN number:   0.87E-02 at (   2,   5,   2)
       Mesh   27
       Max CFL number:  0.14E-01 at (   3,   2,   2)
       Max divergence:  0.56E-06 at (   1,   3,   3)
       Min divergence: -0.58E-06 at (   2,   3,   1)
       Max VN number:   0.64E-02 at (   1,   3,   3)
       Mesh   28
       Max CFL number:  0.17E-01 at (   3,   2,   3)
       Max divergence:  0.24E-06 at (   3,   4,   2)
       Min divergence: -0.94E-06 at (   1,   2,   2)
       Max VN number:   0.10E-01 at (   2,   4,   3)
       Mesh   29
       Max CFL number:  0.17E-01 at (   2,   5,   3)
       Max divergence:  0.30E-06 at (   2,   5,   2)
       Min divergence: -0.80E-06 at (   2,   2,   2)
       Max VN number:   0.10E-01 at (   2,   2,   2)
       Mesh   30
       Max CFL number:  0.16E-01 at (   1,   2,   3)
       Max divergence:  0.41E-06 at (   1,   2,   2)
       Min divergence: -0.10E-05 at (   1,   3,   3)
       Max VN number:   0.90E-02 at (   1,   2,   2)
 
       Time Step       5   January 12, 2023  17:07:14
       Step Size:    0.930E-01 s, Total Time:       0.64 s
       Pressure Iterations:      5
       Maximum Velocity Error:  0.62E-01 on Mesh  17 at (   2   6   2)
       Maximum Pressure Error:  0.15E+03 on Mesh  18 at (   2   2   2)
       ---------------------------------------------------------------
       Mesh    1
       Max CFL number:  0.96E-02 at (   3,   4,   2)
       Max divergence:  0.76E-06 at (   2,   3,   3)
       Min divergence: -0.71E-06 at (   3,   4,   2)
       Max VN number:   0.58E-02 at (   2,   3,   3)
       Mesh    2
       Max CFL number:  0.59E-01 at (   1,   5,   3)
       Max divergence:  0.76E-01 at (   1,   5,   2)
       Min divergence: -0.64E-06 at (   3,   2,   2)
       Max VN number:   0.90E-02 at (   1,   5,   2)
       Mesh    3
       Max CFL number:  0.22E-01 at (   1,   5,   1)
       Max divergence:  0.15E-05 at (   1,   5,   1)
       Min divergence: -0.52E-06 at (   4,   4,   3)
       Max VN number:   0.59E-02 at (   1,   3,   2)
       Mesh    4
       Max CFL number:  0.55E-01 at (   4,   1,   3)
       Max divergence:  0.20E-01 at (   4,   1,   2)
       Min divergence: -0.48E-06 at (   1,   4,   2)
       Max VN number:   0.90E-02 at (   4,   2,   1)
       Mesh    5
       Max CFL number:  0.10E-01 at (   1,   2,   3)
       Max divergence:  0.33E-06 at (   2,   5,   3)
       Min divergence: -0.81E-06 at (   1,   4,   3)
       Max VN number:   0.68E-02 at (   2,   3,   3)
       Mesh    6
       Max CFL number:  0.11E-01 at (   4,   3,   2)
       Max divergence:  0.56E-06 at (   3,   2,   2)
       Min divergence: -0.88E-06 at (   3,   4,   3)
       Max VN number:   0.59E-02 at (   3,   4,   3)
       Mesh    7
       Max CFL number:  0.10E-01 at (   2,   3,   3)
       Max divergence:  0.32E-06 at (   2,   2,   2)
       Min divergence: -0.91E-06 at (   2,   5,   4)
       Max VN number:   0.62E-02 at (   3,   3,   2)
       Mesh    8
       Max CFL number:  0.19E-01 at (   4,   2,   1)
       Max divergence:  0.91E-06 at (   4,   4,   3)
       Min divergence: -0.75E-06 at (   4,   6,   3)
       Max VN number:   0.66E-02 at (   3,   2,   2)
       Mesh    9
       Max CFL number:  0.14E-01 at (   2,   2,   3)
       Max divergence:  0.28E-06 at (   3,   4,   3)
       Min divergence: -0.14E-05 at (   2,   2,   2)
       Max VN number:   0.80E-02 at (   2,   1,   2)
       Mesh   10
       Max CFL number:  0.12E-01 at (   3,   4,   2)
       Max divergence:  0.38E-06 at (   4,   2,   3)
       Min divergence: -0.66E-06 at (   4,   5,   2)
       Max VN number:   0.59E-02 at (   4,   3,   2)
       Mesh   11
       Max CFL number:  0.11E-01 at (   3,   3,   2)
       Max divergence:  0.21E-06 at (   2,   3,   2)
       Min divergence: -0.98E-06 at (   3,   3,   3)
       Max VN number:   0.59E-02 at (   3,   4,   2)
       Mesh   12
       Max CFL number:  0.11E-01 at (   2,   3,   1)
       Max divergence:  0.72E-06 at (   2,   3,   2)
       Min divergence: -0.13E-05 at (   3,   3,   2)
       Max VN number:   0.78E-02 at (   2,   3,   2)
       Mesh   13
       Max CFL number:  0.33E-01 at (   3,   5,   1)
       Max divergence:  0.38E-05 at (   3,   5,   2)
       Min divergence: -0.36E-06 at (   3,   4,   3)
       Max VN number:   0.59E-02 at (   1,   4,   3)
       Mesh   14
       Max CFL number:  0.12E-01 at (   2,   3,   3)
       Max divergence:  0.29E-06 at (   3,   3,   2)
       Min divergence: -0.96E-06 at (   2,   3,   3)
       Max VN number:   0.63E-02 at (   2,   3,   3)
       Mesh   15
       Max CFL number:  0.11E-01 at (   2,   2,   2)
       Max divergence:  0.75E-06 at (   2,   3,   3)
       Min divergence: -0.75E-06 at (   4,   1,   3)
       Max VN number:   0.61E-02 at (   2,   3,   3)
       Mesh   16
       Max CFL number:  0.13E-01 at (   3,   5,   3)
       Max divergence:  0.59E-06 at (   4,   2,   3)
       Min divergence: -0.80E-06 at (   1,   3,   1)
       Max VN number:   0.57E-02 at (   2,   5,   3)
       Mesh   17
       Max CFL number:  0.13E+00 at (   3,   5,   2)
       Max divergence:  0.88E+00 at (   3,   5,   2)
       Min divergence: -0.52E-06 at (   1,   1,   2)
       Max VN number:   0.75E-01 at (   3,   5,   2)
       Mesh   18
       Max CFL number:  0.78E+00 at (   2,   2,   2)
       Max divergence:  0.82E+00 at (   1,   1,   2)
       Min divergence: -0.51E+01 at (   3,   2,   2)
       Max VN number:   0.55E+00 at (   3,   1,   2)
       Mesh   19
       Max CFL number:  0.14E-01 at (   4,   4,   1)
       Max divergence:  0.53E-06 at (   4,   5,   2)
       Min divergence: -0.79E-06 at (   3,   2,   4)
       Max VN number:   0.57E-02 at (   3,   2,   4)
       Mesh   20
       Max CFL number:  0.12E-01 at (   3,   4,   3)
       Max divergence:  0.53E-06 at (   3,   4,   3)
       Min divergence: -0.56E-06 at (   4,   3,   3)
       Max VN number:   0.65E-02 at (   3,   4,   3)
       Mesh   21
       Max CFL number:  0.66E-01 at (   3,   2,   1)
       Max divergence:  0.54E-04 at (   3,   1,   1)
       Min divergence: -0.19E-06 at (   1,   6,   2)
       Max VN number:   0.60E-02 at (   1,   2,   1)
       Mesh   22
       Max CFL number:  0.10E-01 at (   2,   4,   1)
       Max divergence:  0.57E-06 at (   1,   2,   2)
       Min divergence: -0.65E-06 at (   3,   6,   2)
       Max VN number:   0.64E-02 at (   2,   4,   4)
       Mesh   23
       Max CFL number:  0.29E-01 at (   4,   5,   3)
       Max divergence:  0.11E-03 at (   4,   5,   2)
       Min divergence: -0.99E-06 at (   2,   3,   2)
       Max VN number:   0.70E-02 at (   2,   3,   2)
       Mesh   24
       Max CFL number:  0.13E+00 at (   1,   1,   2)
       Max divergence:  0.88E+00 at (   1,   1,   2)
       Min divergence: -0.59E-06 at (   1,   5,   1)
       Max VN number:   0.75E-01 at (   1,   1,   2)
       Mesh   25
       Max CFL number:  0.11E-01 at (   2,   4,   3)
       Max divergence:  0.35E-06 at (   2,   4,   3)
       Min divergence: -0.12E-05 at (   2,   1,   2)
       Max VN number:   0.60E-02 at (   2,   4,   3)
       Mesh   26
       Max CFL number:  0.34E-01 at (   1,   2,   1)
       Max divergence:  0.34E-05 at (   1,   1,   2)
       Min divergence: -0.51E-06 at (   1,   6,   2)
       Max VN number:   0.60E-02 at (   2,   5,   2)
       Mesh   27
       Max CFL number:  0.92E-02 at (   3,   2,   2)
       Max divergence:  0.56E-06 at (   1,   3,   3)
       Min divergence: -0.58E-06 at (   2,   3,   1)
       Max VN number:   0.44E-02 at (   1,   3,   3)
       Mesh   28
       Max CFL number:  0.11E-01 at (   3,   2,   3)
       Max divergence:  0.24E-06 at (   3,   4,   2)
       Min divergence: -0.93E-06 at (   1,   2,   2)
       Max VN number:   0.68E-02 at (   2,   4,   3)
       Mesh   29
       Max CFL number:  0.12E-01 at (   2,   5,   3)
       Max divergence:  0.35E-06 at (   2,   5,   2)
       Min divergence: -0.69E-06 at (   2,   2,   2)
       Max VN number:   0.71E-02 at (   2,   2,   2)
       Mesh   30
       Max CFL number:  0.11E-01 at (   1,   2,   3)
       Max divergence:  0.41E-06 at (   1,   2,   2)
       Min divergence: -0.10E-05 at (   1,   3,   3)
       Max VN number:   0.61E-02 at (   1,   2,   2)
 
       Time Step       6   January 12, 2023  17:07:14
       Step Size:    0.717E-01 s, Total Time:       0.71 s
       Pressure Iterations:      6
       Maximum Velocity Error:  0.44E-01 on Mesh   2 at (   1   6   2)
       Maximum Pressure Error:  0.96E+02 on Mesh  18 at (   2   2   2)
       ---------------------------------------------------------------
       Mesh    1
       Max CFL number:  0.74E-02 at (   3,   4,   2)
       Max divergence:  0.74E-06 at (   2,   3,   3)
       Min divergence: -0.74E-06 at (   2,   2,   2)
       Max VN number:   0.44E-02 at (   2,   3,   3)
       Mesh    2
       Max CFL number:  0.52E-01 at (   1,   5,   2)
       Max divergence:  0.58E-01 at (   1,   5,   2)
       Min divergence: -0.11E-05 at (   2,   5,   4)
       Max VN number:   0.14E-01 at (   1,   5,   3)
       Mesh    3
       Max CFL number:  0.18E-01 at (   1,   5,   1)
       Max divergence:  0.15E-05 at (   1,   5,   1)
       Min divergence: -0.47E-06 at (   4,   4,   3)
       Max VN number:   0.46E-02 at (   1,   3,   2)
       Mesh    4
       Max CFL number:  0.49E-01 at (   4,   1,   2)
       Max divergence:  0.26E-01 at (   4,   1,   2)
       Min divergence: -0.57E-06 at (   2,   4,   2)
       Max VN number:   0.11E-01 at (   4,   2,   3)
       Mesh    5
       Max CFL number:  0.77E-02 at (   1,   2,   3)
       Max divergence:  0.27E-06 at (   2,   5,   3)
       Min divergence: -0.90E-06 at (   1,   4,   3)
       Max VN number:   0.53E-02 at (   2,   3,   3)
       Mesh    6
       Max CFL number:  0.81E-02 at (   4,   3,   2)
       Max divergence:  0.53E-06 at (   3,   2,   2)
       Min divergence: -0.89E-06 at (   3,   4,   3)
       Max VN number:   0.45E-02 at (   3,   4,   3)
       Mesh    7
       Max CFL number:  0.78E-02 at (   2,   3,   3)
       Max divergence:  0.51E-06 at (   2,   2,   2)
       Min divergence: -0.65E-06 at (   2,   5,   4)
       Max VN number:   0.47E-02 at (   3,   3,   2)
       Mesh    8
       Max CFL number:  0.16E-01 at (   4,   1,   1)
       Max divergence:  0.10E-05 at (   4,   4,   3)
       Min divergence: -0.66E-06 at (   4,   6,   3)
       Max VN number:   0.50E-02 at (   3,   2,   2)
       Mesh    9
       Max CFL number:  0.10E-01 at (   2,   2,   3)
       Max divergence:  0.36E-06 at (   3,   4,   3)
       Min divergence: -0.12E-05 at (   2,   2,   2)
       Max VN number:   0.64E-02 at (   2,   1,   2)
       Mesh   10
       Max CFL number:  0.90E-02 at (   3,   4,   2)
       Max divergence:  0.27E-06 at (   4,   2,   3)
       Min divergence: -0.74E-06 at (   2,   5,   1)
       Max VN number:   0.45E-02 at (   4,   3,   2)
       Mesh   11
       Max CFL number:  0.86E-02 at (   3,   3,   2)
       Max divergence:  0.21E-06 at (   2,   3,   2)
       Min divergence: -0.10E-05 at (   2,   4,   2)
       Max VN number:   0.46E-02 at (   3,   4,   2)
       Mesh   12
       Max CFL number:  0.90E-02 at (   2,   3,   1)
       Max divergence:  0.89E-06 at (   2,   3,   2)
       Min divergence: -0.11E-05 at (   3,   3,   2)
       Max VN number:   0.60E-02 at (   2,   3,   2)
       Mesh   13
       Max CFL number:  0.23E-01 at (   3,   5,   1)
       Max divergence:  0.15E-04 at (   3,   5,   1)
       Min divergence: -0.22E-06 at (   1,   1,   2)
       Max VN number:   0.47E-02 at (   1,   4,   3)
       Mesh   14
       Max CFL number:  0.96E-02 at (   2,   3,   2)
       Max divergence:  0.45E-06 at (   3,   3,   2)
       Min divergence: -0.80E-06 at (   2,   3,   3)
       Max VN number:   0.48E-02 at (   2,   3,   3)
       Mesh   15
       Max CFL number:  0.83E-02 at (   2,   2,   2)
       Max divergence:  0.71E-06 at (   2,   3,   3)
       Min divergence: -0.76E-06 at (   4,   1,   3)
       Max VN number:   0.47E-02 at (   2,   3,   3)
       Mesh   16
       Max CFL number:  0.10E-01 at (   3,   5,   3)
       Max divergence:  0.48E-06 at (   4,   2,   3)
       Min divergence: -0.80E-06 at (   4,   5,   2)
       Max VN number:   0.44E-02 at (   2,   5,   3)
       Mesh   17
       Max CFL number:  0.33E+00 at (   2,   5,   2)
       Max divergence:  0.43E+00 at (   3,   5,   2)
       Min divergence:  0.16E-06 at (   1,   1,   2)
       Max VN number:   0.71E-01 at (   2,   5,   2)
       Mesh   18
       Max CFL number:  0.83E+00 at (   3,   2,   2)
       Max divergence:  0.91E+01 at (   3,   2,   2)
       Min divergence: -0.41E+00 at (   3,   1,   3)
       Max VN number:   0.81E-01 at (   3,   1,   3)
       Mesh   19
       Max CFL number:  0.14E-01 at (   4,   5,   1)
       Max divergence:  0.10E-05 at (   4,   5,   2)
       Min divergence: -0.64E-06 at (   3,   2,   4)
       Max VN number:   0.43E-02 at (   3,   2,   4)
       Mesh   20
       Max CFL number:  0.93E-02 at (   3,   4,   3)
       Max divergence:  0.53E-06 at (   4,   5,   3)
       Min divergence: -0.57E-06 at (   4,   3,   3)
       Max VN number:   0.50E-02 at (   3,   4,   3)
       Mesh   21
       Max CFL number:  0.55E-01 at (   3,   2,   1)
       Max divergence:  0.10E-02 at (   3,   2,   1)
       Min divergence:  0.19E-06 at (   1,   6,   2)
       Max VN number:   0.49E-02 at (   2,   2,   1)
       Mesh   22
       Max CFL number:  0.78E-02 at (   2,   4,   1)
       Max divergence:  0.49E-06 at (   1,   2,   2)
       Min divergence: -0.65E-06 at (   3,   6,   2)
       Max VN number:   0.49E-02 at (   2,   4,   4)
       Mesh   23
       Max CFL number:  0.18E-01 at (   4,   5,   3)
       Max divergence:  0.29E-03 at (   4,   5,   2)
       Min divergence: -0.12E-05 at (   4,   4,   3)
       Max VN number:   0.54E-02 at (   2,   3,   2)
       Mesh   24
       Max CFL number:  0.33E+00 at (   1,   2,   2)
       Max divergence:  0.43E+00 at (   1,   1,   2)
       Min divergence: -0.36E-06 at (   3,   6,   1)
       Max VN number:   0.74E-01 at (   1,   2,   2)
       Mesh   25
       Max CFL number:  0.91E-02 at (   3,   3,   2)
       Max divergence:  0.53E-06 at (   2,   4,   3)
       Min divergence: -0.80E-06 at (   2,   1,   2)
       Max VN number:   0.46E-02 at (   2,   4,   3)
       Mesh   26
       Max CFL number:  0.24E-01 at (   1,   2,   1)
       Max divergence:  0.16E-04 at (   1,   1,   1)
       Min divergence: -0.50E-06 at (   4,   3,   3)
       Max VN number:   0.44E-02 at (   2,   5,   2)
       Mesh   27
       Max CFL number:  0.71E-02 at (   3,   2,   2)
       Max divergence:  0.48E-06 at (   1,   3,   3)
       Min divergence: -0.66E-06 at (   2,   3,   1)
       Max VN number:   0.34E-02 at (   3,   4,   1)
       Mesh   28
       Max CFL number:  0.87E-02 at (   3,   2,   3)
       Max divergence:  0.21E-06 at (   1,   4,   2)
       Min divergence: -0.88E-06 at (   1,   2,   2)
       Max VN number:   0.53E-02 at (   2,   4,   3)
       Mesh   29
       Max CFL number:  0.91E-02 at (   2,   5,   3)
       Max divergence:  0.48E-06 at (   2,   5,   2)
       Min divergence: -0.63E-06 at (   3,   5,   4)
       Max VN number:   0.55E-02 at (   2,   2,   2)
       Mesh   30
       Max CFL number:  0.84E-02 at (   1,   2,   3)
       Max divergence:  0.57E-06 at (   1,   2,   2)
       Min divergence: -0.91E-06 at (   1,   3,   3)
       Max VN number:   0.47E-02 at (   1,   2,   2)
 
       Time Step       7   January 12, 2023  17:07:14
       Step Size:    0.717E-01 s, Total Time:       0.78 s
       Pressure Iterations:      4
       Maximum Velocity Error:  0.74E-01 on Mesh   2 at (   1   6   2)
       Maximum Pressure Error:  0.17E+03 on Mesh  18 at (   3   2   2)
       ---------------------------------------------------------------
       Mesh    1
       Max CFL number:  0.74E-02 at (   3,   4,   2)
       Max divergence:  0.74E-06 at (   2,   3,   3)
       Min divergence: -0.74E-06 at (   2,   2,   2)
       Max VN number:   0.44E-02 at (   2,   3,   3)
       Mesh    2
       Max CFL number:  0.59E-01 at (   1,   5,   3)
       Max divergence:  0.48E-01 at (   1,   5,   2)
       Min divergence: -0.10E-05 at (   3,   4,   2)
       Max VN number:   0.14E-01 at (   1,   5,   2)
       Mesh    3
       Max CFL number:  0.23E-01 at (   1,   5,   1)
       Max divergence:  0.24E-05 at (   1,   5,   2)
       Min divergence: -0.50E-06 at (   4,   4,   3)
       Max VN number:   0.45E-02 at (   1,   3,   2)
       Mesh    4
       Max CFL number:  0.61E-01 at (   4,   1,   3)
       Max divergence:  0.20E-01 at (   4,   1,   2)
       Min divergence: -0.52E-06 at (   2,   4,   1)
       Max VN number:   0.10E-01 at (   4,   2,   2)
       Mesh    5
       Max CFL number:  0.78E-02 at (   1,   2,   3)
       Max divergence:  0.30E-06 at (   2,   5,   3)
       Min divergence: -0.87E-06 at (   1,   4,   3)
       Max VN number:   0.53E-02 at (   2,   3,   3)
       Mesh    6
       Max CFL number:  0.81E-02 at (   4,   3,   2)
       Max divergence:  0.53E-06 at (   3,   2,   2)
       Min divergence: -0.89E-06 at (   3,   4,   3)
       Max VN number:   0.45E-02 at (   3,   4,   3)
       Mesh    7
       Max CFL number:  0.79E-02 at (   2,   3,   3)
       Max divergence:  0.52E-06 at (   2,   2,   2)
       Min divergence: -0.61E-06 at (   2,   5,   4)
       Max VN number:   0.47E-02 at (   3,   3,   2)
       Mesh    8
       Max CFL number:  0.23E-01 at (   4,   1,   1)
       Max divergence:  0.11E-05 at (   4,   1,   1)
       Min divergence: -0.66E-06 at (   4,   6,   3)
       Max VN number:   0.50E-02 at (   3,   2,   2)
       Mesh    9
       Max CFL number:  0.10E-01 at (   2,   2,   3)
       Max divergence:  0.43E-06 at (   3,   4,   3)
       Min divergence: -0.12E-05 at (   2,   2,   2)
       Max VN number:   0.70E-02 at (   2,   1,   2)
       Mesh   10
       Max CFL number:  0.88E-02 at (   3,   4,   2)
       Max divergence:  0.29E-06 at (   4,   2,   3)
       Min divergence: -0.71E-06 at (   2,   5,   2)
       Max VN number:   0.45E-02 at (   4,   3,   2)
       Mesh   11
       Max CFL number:  0.85E-02 at (   3,   3,   2)
       Max divergence:  0.23E-06 at (   2,   3,   2)
       Min divergence: -0.98E-06 at (   2,   4,   2)
       Max VN number:   0.46E-02 at (   3,   4,   2)
       Mesh   12
       Max CFL number:  0.91E-02 at (   2,   3,   1)
       Max divergence:  0.91E-06 at (   2,   3,   2)
       Min divergence: -0.10E-05 at (   3,   3,   2)
       Max VN number:   0.60E-02 at (   2,   3,   2)
       Mesh   13
       Max CFL number:  0.43E-01 at (   3,   5,   1)
       Max divergence:  0.33E-03 at (   3,   5,   1)
       Min divergence: -0.28E-06 at (   1,   1,   2)
       Max VN number:   0.46E-02 at (   1,   4,   3)
       Mesh   14
       Max CFL number:  0.97E-02 at (   2,   3,   2)
       Max divergence:  0.48E-06 at (   3,   3,   2)
       Min divergence: -0.79E-06 at (   2,   3,   3)
       Max VN number:   0.48E-02 at (   2,   3,   3)
       Mesh   15
       Max CFL number:  0.82E-02 at (   2,   2,   2)
       Max divergence:  0.71E-06 at (   2,   3,   3)
       Min divergence: -0.76E-06 at (   4,   1,   3)
       Max VN number:   0.47E-02 at (   2,   3,   3)
       Mesh   16
       Max CFL number:  0.10E-01 at (   3,   5,   3)
       Max divergence:  0.51E-06 at (   4,   2,   3)
       Min divergence: -0.79E-06 at (   1,   6,   3)
       Max VN number:   0.44E-02 at (   2,   5,   3)
       Mesh   17
       Max CFL number:  0.15E+00 at (   3,   5,   3)
       Max divergence:  0.46E+00 at (   3,   5,   2)
       Min divergence:  0.14E-06 at (   1,   1,   2)
       Max VN number:   0.62E-01 at (   3,   5,   3)
       Mesh   18
[...]
       Min divergence: -0.76E-01 at (   1,   5,   2)
       Max VN number:   0.93E-01 at (   1,   5,   1)
       Mesh    8
       Max CFL number:  0.98E-01 at (   4,   2,   1)
       Max divergence:  0.21E-01 at (   4,   2,   1)
       Min divergence:  0.20E-03 at (   1,   6,   4)
       Max VN number:   0.48E-01 at (   4,   2,   1)
       Mesh    9
       Max CFL number:  0.78E+00 at (   3,   5,   4)
       Max divergence:  0.15E+00 at (   2,   5,   2)
       Min divergence: -0.36E+00 at (   3,   5,   3)
       Max VN number:   0.26E+00 at (   3,   5,   3)
       Mesh   10
       Max CFL number:  0.52E+00 at (   4,   5,   2)
       Max divergence:  0.99E-01 at (   4,   4,   4)
       Min divergence: -0.18E+00 at (   4,   5,   3)
       Max VN number:   0.18E+00 at (   4,   5,   2)
       Mesh   11
       Max CFL number:  0.12E+00 at (   3,   5,   3)
       Max divergence:  0.69E-01 at (   1,   5,   1)
       Min divergence: -0.19E-02 at (   3,   5,   3)
       Max VN number:   0.59E-01 at (   3,   5,   3)
       Mesh   12
       Max CFL number:  0.27E+00 at (   4,   1,   4)
       Max divergence:  0.24E-01 at (   3,   1,   4)
       Min divergence: -0.25E-01 at (   4,   2,   4)
       Max VN number:   0.49E-01 at (   3,   1,   3)
       Mesh   13
       Max CFL number:  0.70E+00 at (   3,   5,   3)
       Max divergence:  0.18E+00 at (   2,   5,   1)
       Min divergence: -0.45E+00 at (   3,   5,   4)
       Max VN number:   0.23E+00 at (   3,   5,   3)
       Mesh   14
       Max CFL number:  0.34E+00 at (   4,   5,   4)
       Max divergence:  0.33E-01 at (   4,   4,   4)
       Min divergence: -0.66E-01 at (   4,   5,   4)
       Max VN number:   0.73E-01 at (   4,   5,   4)
       Mesh   15
       Max CFL number:  0.18E+00 at (   1,   4,   3)
       Max divergence:  0.62E-01 at (   1,   5,   3)
       Min divergence: -0.56E-02 at (   1,   3,   3)
       Max VN number:   0.89E-01 at (   1,   5,   3)
       Mesh   16
       Max CFL number:  0.36E+00 at (   4,   1,   2)
       Max divergence:  0.11E+00 at (   4,   2,   4)
       Min divergence: -0.78E-01 at (   4,   1,   2)
       Max VN number:   0.57E-01 at (   4,   2,   3)
       Mesh   17
       Max CFL number:  0.35E+00 at (   3,   5,   4)
       Max divergence:  0.10E+01 at (   3,   5,   2)
       Min divergence:  0.28E-03 at (   1,   3,   1)
       Max VN number:   0.74E-01 at (   3,   4,   4)
       Mesh   18
       Max CFL number:  0.58E+00 at (   3,   1,   4)
       Max divergence:  0.63E+01 at (   2,   2,   2)
       Min divergence: -0.10E+01 at (   3,   1,   4)
       Max VN number:   0.20E+00 at (   3,   1,   4)
       Mesh   19
       Max CFL number:  0.10E+00 at (   4,   5,   4)
       Max divergence:  0.82E-02 at (   4,   5,   3)
       Min divergence:  0.29E-03 at (   1,   1,   4)
       Max VN number:   0.18E-01 at (   4,   5,   1)
       Mesh   20
       Max CFL number:  0.23E+00 at (   4,   1,   1)
       Max divergence:  0.71E-01 at (   4,   3,   1)
       Min divergence: -0.14E-01 at (   4,   1,   4)
       Max VN number:   0.61E-01 at (   4,   2,   4)
       Mesh   21
       Max CFL number:  0.66E+00 at (   3,   1,   1)
       Max divergence:  0.61E+00 at (   2,   1,   1)
       Min divergence: -0.14E+01 at (   3,   1,   1)
       Max VN number:   0.22E+00 at (   3,   1,   1)
       Mesh   22
       Max CFL number:  0.62E+00 at (   2,   3,   3)
       Max divergence:  0.27E+00 at (   1,   2,   1)
       Min divergence: -0.18E+00 at (   2,   3,   2)
       Max VN number:   0.18E+00 at (   2,   3,   3)
       Mesh   23
       Max CFL number:  0.79E-01 at (   4,   5,   1)
       Max divergence:  0.84E-02 at (   4,   5,   2)
       Min divergence: -0.68E-04 at (   1,   5,   1)
       Max VN number:   0.54E-01 at (   1,   5,   1)
       Mesh   24
       Max CFL number:  0.22E+00 at (   1,   2,   2)
       Max divergence:  0.12E+01 at (   1,   2,   2)
       Min divergence:  0.38E-03 at (   4,   6,   1)
       Max VN number:   0.13E+00 at (   1,   2,   3)
       Mesh   25
       Max CFL number:  0.67E+00 at (   3,   1,   2)
       Max divergence:  0.20E+00 at (   3,   3,   2)
       Min divergence: -0.56E+00 at (   3,   2,   1)
       Max VN number:   0.20E+00 at (   3,   2,   1)
       Mesh   26
       Max CFL number:  0.20E+00 at (   1,   1,   4)
       Max divergence:  0.54E+00 at (   1,   1,   1)
       Min divergence:  0.25E-03 at (   4,   6,   4)
       Max VN number:   0.10E+00 at (   1,   2,   1)
       Mesh   27
       Max CFL number:  0.42E+00 at (   1,   3,   2)
       Max divergence:  0.53E-01 at (   1,   2,   3)
       Min divergence: -0.70E-01 at (   1,   3,   3)
       Max VN number:   0.11E+00 at (   1,   3,   2)
       Mesh   28
       Max CFL number:  0.72E+00 at (   1,   1,   3)
       Max divergence:  0.20E+00 at (   3,   1,   2)
       Min divergence: -0.27E+00 at (   1,   3,   4)
       Max VN number:   0.19E+00 at (   1,   1,   3)
       Mesh   29
       Max CFL number:  0.29E+00 at (   1,   1,   4)
       Max divergence:  0.24E+00 at (   1,   2,   1)
       Min divergence: -0.13E+00 at (   1,   1,   4)
       Max VN number:   0.81E-01 at (   1,   2,   1)
       Mesh   30
       Max CFL number:  0.27E+00 at (   1,   2,   4)
       Max divergence:  0.49E-01 at (   1,   2,   1)
       Min divergence: -0.15E-01 at (   1,   2,   4)
       Max VN number:   0.75E-01 at (   1,   2,   4)
 
       Time Step     500   January 12, 2023  17:07:26
       Step Size:    0.258E-01 s, Total Time:      13.68 s
       Pressure Iterations:      2
       Maximum Velocity Error:  0.49E-01 on Mesh  18 at (   1   2   5)
       Maximum Pressure Error:  0.21E+02 on Mesh  21 at (   1   2   1)
       ---------------------------------------------------------------
       Mesh    1
       Max CFL number:  0.54E+00 at (   2,   5,   2)
       Max divergence:  0.99E-01 at (   2,   4,   2)
       Min divergence: -0.79E-01 at (   1,   5,   2)
       Max VN number:   0.13E+00 at (   2,   5,   1)
       Mesh    2
       Max CFL number:  0.23E+00 at (   1,   5,   4)
       Max divergence:  0.32E+00 at (   1,   5,   2)
       Min divergence: -0.18E-01 at (   2,   5,   2)
       Max VN number:   0.84E-01 at (   1,   5,   2)
       Mesh    3
       Max CFL number:  0.47E+00 at (   1,   5,   4)
       Max divergence:  0.12E+00 at (   2,   5,   3)
       Min divergence: -0.16E+00 at (   1,   5,   4)
       Max VN number:   0.16E+00 at (   1,   5,   4)
       Mesh    4
       Max CFL number:  0.15E+00 at (   4,   2,   4)
       Max divergence:  0.58E+00 at (   4,   2,   4)
       Min divergence:  0.38E-03 at (   1,   6,   2)
       Max VN number:   0.96E-01 at (   4,   1,   3)
       Mesh    5
       Max CFL number:  0.42E+00 at (   2,   5,   4)
       Max divergence:  0.12E+00 at (   2,   5,   1)
       Min divergence: -0.32E-01 at (   3,   4,   4)
       Max VN number:   0.95E-01 at (   2,   4,   4)
       Mesh    6
       Max CFL number:  0.18E+00 at (   4,   5,   2)
       Max divergence:  0.27E-01 at (   4,   5,   4)
       Min divergence: -0.82E-02 at (   4,   5,   2)
       Max VN number:   0.38E-01 at (   4,   5,   4)
       Mesh    7
       Max CFL number:  0.50E+00 at (   1,   5,   2)
       Max divergence:  0.11E+00 at (   2,   5,   2)
       Min divergence: -0.27E+00 at (   1,   5,   2)
       Max VN number:   0.17E+00 at (   1,   5,   2)
       Mesh    8
       Max CFL number:  0.15E+00 at (   4,   2,   1)
       Max divergence:  0.29E+00 at (   4,   2,   1)
       Min divergence:  0.31E-03 at (   1,   6,   4)
       Max VN number:   0.72E-01 at (   4,   1,   1)
       Mesh    9
       Max CFL number:  0.33E+00 at (   3,   5,   2)
       Max divergence:  0.11E+00 at (   2,   5,   4)
       Min divergence: -0.46E-01 at (   3,   5,   2)
       Max VN number:   0.83E-01 at (   2,   5,   3)
       Mesh   10
       Max CFL number:  0.99E-01 at (   4,   5,   4)
       Max divergence:  0.24E-01 at (   4,   5,   1)
       Min divergence: -0.56E-02 at (   4,   5,   4)
       Max VN number:   0.24E-01 at (   3,   5,   3)
       Mesh   11
       Max CFL number:  0.37E+00 at (   1,   4,   4)
       Max divergence:  0.25E-01 at (   3,   5,   4)
       Min divergence: -0.27E-01 at (   2,   5,   3)
       Max VN number:   0.13E+00 at (   1,   4,   4)
       Mesh   12
       Max CFL number:  0.84E-01 at (   4,   1,   4)
       Max divergence:  0.65E-01 at (   4,   1,   4)
       Min divergence:  0.15E-03 at (   1,   1,   4)
       Max VN number:   0.64E-01 at (   4,   1,   4)
       Mesh   13
       Max CFL number:  0.27E+00 at (   3,   5,   4)
       Max divergence:  0.13E+00 at (   2,   5,   1)
       Min divergence: -0.34E-01 at (   1,   5,   3)
       Max VN number:   0.78E-01 at (   1,   5,   4)
       Mesh   14
       Max CFL number:  0.66E-01 at (   4,   5,   4)
       Max divergence:  0.22E-01 at (   4,   5,   4)
       Min divergence:  0.17E-03 at (   2,   2,   2)
       Max VN number:   0.29E-01 at (   4,   5,   4)
       Mesh   15
       Max CFL number:  0.51E+00 at (   1,   5,   3)
       Max divergence:  0.86E-01 at (   2,   5,   1)
       Min divergence: -0.95E-01 at (   1,   5,   3)
       Max VN number:   0.13E+00 at (   1,   4,   1)
       Mesh   16
       Max CFL number:  0.99E-01 at (   4,   1,   3)
       Max divergence:  0.17E+00 at (   4,   1,   1)
       Min divergence: -0.37E-03 at (   3,   1,   4)
       Max VN number:   0.74E-01 at (   4,   1,   1)
       Mesh   17
       Max CFL number:  0.32E+00 at (   3,   5,   2)
       Max divergence:  0.35E+00 at (   3,   5,   2)
       Min divergence: -0.24E-02 at (   3,   4,   2)
       Max VN number:   0.10E+00 at (   3,   5,   3)
       Mesh   18
       Max CFL number:  0.60E+00 at (   1,   2,   3)
       Max divergence:  0.65E+01 at (   3,   2,   2)
       Min divergence: -0.94E+00 at (   2,   2,   4)
       Max VN number:   0.22E+00 at (   1,   2,   4)
       Mesh   19
       Max CFL number:  0.44E-01 at (   4,   4,   1)
       Max divergence:  0.56E-01 at (   4,   5,   1)
       Min divergence:  0.21E-03 at (   1,   1,   2)
       Max VN number:   0.34E-01 at (   4,   5,   1)
       Mesh   20
       Max CFL number:  0.35E+00 at (   4,   1,   4)
       Max divergence:  0.44E-01 at (   4,   2,   1)
       Min divergence: -0.39E-01 at (   4,   1,   4)
       Max VN number:   0.11E+00 at (   4,   1,   4)
       Mesh   21
       Max CFL number:  0.66E+00 at (   2,   2,   2)
       Max divergence:  0.59E+00 at (   1,   3,   1)
       Min divergence: -0.16E+01 at (   2,   2,   1)
       Max VN number:   0.24E+00 at (   2,   2,   3)
       Mesh   22
       Max CFL number:  0.78E+00 at (   2,   1,   3)
       Max divergence:  0.18E+00 at (   1,   2,   1)
       Min divergence: -0.34E+00 at (   2,   2,   1)
       Max VN number:   0.21E+00 at (   2,   1,   4)
       Mesh   23
       Max CFL number:  0.84E-01 at (   4,   5,   3)
       Max divergence:  0.43E-01 at (   4,   5,   4)
       Min divergence:  0.23E-03 at (   1,   2,   1)
       Max VN number:   0.31E-01 at (   4,   5,   3)
       Mesh   24
       Max CFL number:  0.36E+00 at (   1,   1,   4)
       Max divergence:  0.10E+01 at (   1,   1,   2)
       Min divergence: -0.16E+00 at (   1,   1,   4)
       Max VN number:   0.13E+00 at (   1,   1,   4)
       Mesh   25
       Max CFL number:  0.67E+00 at (   2,   2,   2)
       Max divergence:  0.26E+00 at (   2,   3,   2)
       Min divergence: -0.62E+00 at (   2,   2,   1)
       Max VN number:   0.23E+00 at (   2,   2,   1)
       Mesh   26
       Max CFL number:  0.53E+00 at (   1,   1,   4)
       Max divergence:  0.21E+00 at (   2,   1,   1)
       Min divergence: -0.36E+00 at (   1,   1,   1)
       Max VN number:   0.13E+00 at (   1,   1,   4)
       Mesh   27
       Max CFL number:  0.58E+00 at (   1,   2,   1)
       Max divergence:  0.82E-01 at (   1,   2,   3)
       Min divergence: -0.91E-01 at (   1,   2,   1)
       Max VN number:   0.13E+00 at (   1,   2,   3)
       Mesh   28
       Max CFL number:  0.73E+00 at (   3,   1,   3)
       Max divergence:  0.20E+00 at (   1,   2,   2)
       Min divergence: -0.45E+00 at (   2,   2,   2)
       Max VN number:   0.21E+00 at (   2,   2,   1)
       Mesh   29
       Max CFL number:  0.54E+00 at (   1,   1,   2)
       Max divergence:  0.19E+00 at (   1,   1,   4)
       Min divergence: -0.26E+00 at (   1,   1,   1)
       Max VN number:   0.13E+00 at (   1,   1,   1)
       Mesh   30
       Max CFL number:  0.59E+00 at (   1,   2,   4)
       Max divergence:  0.12E+00 at (   1,   1,   1)
       Min divergence: -0.78E-02 at (   1,   1,   4)
       Max VN number:   0.16E+00 at (   1,   2,   4)
 
       Time Step     549   January 12, 2023  17:07:27
       Step Size:    0.264E-01 s, Total Time:      15.00 s
       Pressure Iterations:      3
       Maximum Velocity Error:  0.48E-01 on Mesh  20 at (   5   2   4)
       Maximum Pressure Error:  0.14E+02 on Mesh  25 at (   2   2   1)
       ---------------------------------------------------------------
       Mesh    1
       Max CFL number:  0.54E+00 at (   2,   5,   2)
       Max divergence:  0.90E-01 at (   2,   4,   4)
       Min divergence: -0.14E+00 at (   1,   4,   3)
       Max VN number:   0.15E+00 at (   1,   4,   2)
       Mesh    2
       Max CFL number:  0.22E+00 at (   1,   5,   4)
       Max divergence:  0.99E-01 at (   1,   5,   2)
       Min divergence: -0.98E-02 at (   1,   5,   3)
       Max VN number:   0.85E-01 at (   1,   5,   3)
       Mesh    3
       Max CFL number:  0.19E+00 at (   2,   5,   2)
       Max divergence:  0.99E-01 at (   1,   5,   3)
       Min divergence: -0.35E-01 at (   2,   5,   2)
       Max VN number:   0.11E+00 at (   1,   5,   2)
       Mesh    4
       Max CFL number:  0.24E+00 at (   4,   1,   4)
       Max divergence:  0.29E+00 at (   4,   2,   4)
       Min divergence:  0.54E-03 at (   1,   6,   1)
       Max VN number:   0.10E+00 at (   4,   2,   4)
       Mesh    5
       Max CFL number:  0.50E+00 at (   3,   5,   4)
       Max divergence:  0.22E-01 at (   3,   3,   4)
       Min divergence: -0.44E-01 at (   2,   5,   4)
       Max VN number:   0.94E-01 at (   3,   5,   4)
       Mesh    6
       Max CFL number:  0.26E+00 at (   4,   5,   2)
       Max divergence:  0.49E-01 at (   4,   5,   4)
       Min divergence: -0.39E-01 at (   4,   5,   2)
       Max VN number:   0.51E-01 at (   4,   5,   2)
       Mesh    7
       Max CFL number:  0.20E+00 at (   1,   5,   4)
       Max divergence:  0.51E-01 at (   2,   5,   1)
       Min divergence:  0.43E-04 at (   1,   3,   2)
       Max VN number:   0.76E-01 at (   2,   5,   1)
       Mesh    8
       Max CFL number:  0.57E+00 at (   4,   1,   4)
       Max divergence:  0.26E+00 at (   4,   2,   1)
       Min divergence: -0.76E+00 at (   4,   1,   4)
       Max VN number:   0.22E+00 at (   4,   1,   3)
       Mesh    9
       Max CFL number:  0.36E+00 at (   2,   5,   1)
       Max divergence:  0.41E+00 at (   1,   5,   2)
       Min divergence: -0.21E+00 at (   2,   5,   1)
       Max VN number:   0.10E+00 at (   1,   5,   1)
       Mesh   10
       Max CFL number:  0.23E+00 at (   4,   5,   4)
       Max divergence:  0.29E-01 at (   3,   5,   4)
       Min divergence: -0.76E-02 at (   4,   4,   2)
       Max VN number:   0.53E-01 at (   3,   5,   3)
       Mesh   11
       Max CFL number:  0.27E+00 at (   1,   5,   2)
       Max divergence:  0.29E-01 at (   2,   5,   1)
       Min divergence: -0.28E-01 at (   1,   4,   4)
       Max VN number:   0.75E-01 at (   1,   4,   4)
       Mesh   12
       Max CFL number:  0.50E+00 at (   4,   1,   1)
       Max divergence:  0.26E+00 at (   4,   1,   2)
       Min divergence: -0.28E+00 at (   4,   1,   1)
       Max VN number:   0.10E+00 at (   4,   2,   1)
       Mesh   13
       Max CFL number:  0.41E+00 at (   1,   5,   2)
       Max divergence:  0.25E+00 at (   3,   5,   1)
       Min divergence: -0.38E+00 at (   1,   5,   2)
       Max VN number:   0.11E+00 at (   2,   5,   4)
       Mesh   14
       Max CFL number:  0.12E+00 at (   4,   5,   4)
       Max divergence:  0.17E+00 at (   4,   5,   1)
       Min divergence: -0.17E-02 at (   4,   5,   4)
       Max VN number:   0.33E-01 at (   4,   5,   1)
       Mesh   15
       Max CFL number:  0.36E+00 at (   1,   5,   4)
       Max divergence:  0.14E-01 at (   1,   5,   1)
       Min divergence: -0.38E-01 at (   1,   5,   3)
       Max VN number:   0.85E-01 at (   1,   5,   2)
       Mesh   16
       Max CFL number:  0.64E+00 at (   4,   3,   4)
       Max divergence:  0.75E-01 at (   4,   4,   4)
       Min divergence: -0.14E+00 at (   4,   3,   4)
       Max VN number:   0.19E+00 at (   4,   3,   4)
       Mesh   17
       Max CFL number:  0.25E+00 at (   1,   5,   4)
       Max divergence:  0.69E+00 at (   3,   5,   3)
       Min divergence: -0.32E-02 at (   2,   4,   1)
       Max VN number:   0.11E+00 at (   3,   5,   3)
       Mesh   18
       Max CFL number:  0.61E+00 at (   3,   2,   4)
       Max divergence:  0.71E+01 at (   2,   2,   2)
       Min divergence: -0.14E+01 at (   3,   2,   4)
       Max VN number:   0.22E+00 at (   3,   2,   4)
       Mesh   19
       Max CFL number:  0.10E+00 at (   4,   5,   3)
       Max divergence:  0.25E+00 at (   4,   5,   4)
       Min divergence:  0.15E-03 at (   1,   1,   4)
       Max VN number:   0.99E-01 at (   4,   5,   2)
       Mesh   20
       Max CFL number:  0.62E+00 at (   4,   3,   1)
       Max divergence:  0.11E+00 at (   3,   1,   2)
       Min divergence: -0.17E+00 at (   3,   2,   2)
       Max VN number:   0.19E+00 at (   3,   2,   2)
       Mesh   21
       Max CFL number:  0.72E+00 at (   2,   2,   3)
       Max divergence:  0.49E+00 at (   3,   3,   1)
       Min divergence: -0.16E+01 at (   3,   2,   1)
       Max VN number:   0.20E+00 at (   2,   2,   4)
       Mesh   22
       Max CFL number:  0.80E+00 at (   1,   2,   2)
       Max divergence:  0.72E-01 at (   1,   4,   1)
       Min divergence: -0.11E+00 at (   1,   2,   3)
       Max VN number:   0.18E+00 at (   1,   3,   1)
       Mesh   23
       Max CFL number:  0.92E-01 at (   4,   5,   4)
       Max divergence:  0.52E-01 at (   4,   5,   4)
       Min divergence:  0.33E-03 at (   1,   1,   4)
       Max VN number:   0.43E-01 at (   4,   5,   4)
       Mesh   24
       Max CFL number:  0.19E+00 at (   1,   1,   3)
       Max divergence:  0.69E+00 at (   1,   2,   3)
       Min divergence:  0.50E-03 at (   4,   6,   1)
       Max VN number:   0.95E-01 at (   1,   1,   4)
       Mesh   25
       Max CFL number:  0.76E+00 at (   1,   1,   1)
       Max divergence:  0.21E+00 at (   2,   1,   2)
       Min divergence: -0.10E+01 at (   1,   1,   2)
       Max VN number:   0.30E+00 at (   1,   1,   2)
       Mesh   26
       Max CFL number:  0.37E+00 at (   2,   1,   4)
       Max divergence:  0.39E+00 at (   1,   2,   1)
       Min divergence: -0.92E-01 at (   3,   1,   4)
       Max VN number:   0.13E+00 at (   2,   1,   4)
       Mesh   27
       Max CFL number:  0.39E+00 at (   1,   2,   4)
       Max divergence:  0.60E-01 at (   2,   2,   3)
       Min divergence: -0.54E-01 at (   1,   2,   4)
       Max VN number:   0.13E+00 at (   1,   2,   2)
       Mesh   28
       Max CFL number:  0.70E+00 at (   2,   3,   1)
       Max divergence:  0.16E+00 at (   3,   3,   2)
       Min divergence: -0.29E+00 at (   2,   3,   2)
       Max VN number:   0.20E+00 at (   2,   3,   1)
       Mesh   29
       Max CFL number:  0.58E+00 at (   2,   2,   3)
       Max divergence:  0.15E+00 at (   3,   2,   4)
       Min divergence: -0.48E+00 at (   2,   2,   4)
       Max VN number:   0.23E+00 at (   2,   2,   3)
       Mesh   30
       Max CFL number:  0.64E+00 at (   1,   2,   2)
       Max divergence:  0.11E+00 at (   2,   2,   2)
       Min divergence: -0.34E+00 at (   1,   2,   2)
       Max VN number:   0.24E+00 at (   1,   2,   2)
 


 Time Stepping Wall Clock Time (s):       13.197
 Total Elapsed Wall Clock Time (s):       18.372

STOP: FDS completed successfully (CHID: 1)
